162
#
C 2.5080045287287165 8.78432920685832 3.041495984480462
C 3.4132674236872127 5.93091706181551 4.94084690140528
C 4.718708474183624 10.393530022394197 3.881930736919773
C 4.639313781579975 1.9046635739081808 2.625246663803224
C 4.7200609994666625 8.425159173500706 0.9712672101055458
C 0.7390925234715956 0.8670632098980899 1.384352718616414
C 4.719751585318485 0.6533126030418295 3.239045883299675
C 4.914196212325308 0.12449949291633544 4.340581405508947
C 4.342563311787437 18.573483291879633 2.63271328603731
C 0.10379178547961054 22.847623363624994 2.516744956073186
C 2.7576576137570252 19.99758581896309 3.754143509162937
C 1.136286879890131 20.83024646817889 0.48370878498124104
C 2.619179995157961 22.555103971133622 1.6318240493187504
C 0.6248430796748655 20.16956976068309 3.540656646457267
C 4.2269786705132315 19.657727460446978 4.2968649042376095
C 0.28959765740657284 22.99436059570091 3.620580710530126
C 0.16829389069222211 21.576780850379283 2.3609692633640798
C 3.105792409731587 19.261252152965984 4.5157810010289765
C 0.9311191792637236 17.12394380030977 1.6192617407814636
C 1.057378606532982 18.309562813833754 4.501277546600899
C 3.276985341112737 16.24805165653231 4.571610411096561
C 4.495721984733355 19.158083946408816 0.4125018427468474
C 0.9878620604289079 18.312810149957482 2.045776187544701
C 0.08564877227133949 21.882437118694014 0.26851286407735875
C 3.8750376029142015 18.44369566049979 0.2272093577376122
C 2.124980617929078 16.419980336212475 2.7655474819996244
C 1.95501836209371 18.40490535466681 4.685535130257577
C 0.9127131888005052 21.717691237318114 1.802185232178588
C 2.185085107653527 23.542270383848987 2.0821490610393463
C 0.4941671684735066 22.022202327139873 3.384966118856264
C 4.81199429261427 23.749016431233976 0.28559368792377027
C 3.8377574531297847 22.86070471593871 1.6492257969351325
C 2.3240530317895693 17.31937497315754 2.2968950865363813
C 4.4585439949784424 16.15879657338883 3.976076428135311
C 0.754142305841895 23.1975182911152 0.5322431187769949
C 2.818020580731953 16.47078995687788 2.7048335538858015
C 3.718717402861833 17.097190919151867 3.7651296497577897
C 4.838218005752129 18.476868386348325 3.358582870942535
C 4.559404759777479 21.71538679506908 1.0613912945518245
C 4.07076098105846 20.434256446056054 3.0442888320779
C 0.5083254793655767 18.178711643961478 1.4078099987156767
C 2.640777723821284 16.487293347927185 2.055960566177008
C 2.0159824863601834 16.486935546870974 1.7552917032284583
C 2.5908517535062288 20.57816613388159 2.8560965692736904
C 2.5380373743426303 18.07306606270013 3.126512989263675
C 4.220808392763257 23.569368411564888 2.018138923701737
C 0.5800897400973826 17.474947249939934 2.4304610003873806
C 2.4867343422824835 21.152456350832008 4.230645534644388
C 3.0965156343011246 18.883253897490505 3.6119890094140916
C 1.418707657713033 20.3402256632298 2.851737181082719
C 2.5882814323645844 19.33337555735065 2.7004505378408212
C 3.016222461227305 21.144348079365884 3.4826063102730904
C 0.7197384241298743 18.103286727494535 4.145216226581134
C 3.4815902038211846 19.78910132289682 4.046327384041749
C 3.9694554233088426 18.270972321502974 0.659503336584939
C 4.379765689403015 21.284551510342723 2.600174197170153
C 3.2212556450522225 20.78665063721598 1.0660817313410165
C 2.202711839523363 17.015762189997393 4.092647306452247
C 2.331819867485482 18.906308196106636 2.3480778633769113
C 1.7010560304890698 17.828330740099844 0.6965403160791467
C 0.35199689124881695 18.48728643940671 4.108722934874663
C 2.3143368805078337 19.767055495952345 4.687989834558083
C 1.3775677470401304 22.390767535221947 3.048625812784283
C 0.48121979198607834 17.069256333066193 3.493595937560409
C 2.0048843414080677 19.86499008168032 4.9521097993690635
C 4.040683837347178 22.61239293611171 1.6826112695207045
C 4.780230145261047 21.272811785824473 1.133519947611622
C 4.453991711568269 22.33117857853872 0.9089940779717331
C 2.1483003899678375 22.499262145986272 4.949613346776951
C 4.1769805782678615 17.944088126147008 4.045723179529532
C 0.9689448066181355 22.245884924277235 3.6491614420251817
C 3.1436359692395865 16.737952602371674 3.800166811583412
C 4.640669591151819 16.821241980124256 4.438551564947526
C 2.554745190346783 17.84284360268738 0.9053403919202585
C 0.8753186962563725 23.766603884057414 3.870318224116729
C 0.28842613366718506 22.181635791457353 2.9053787848854022
C 0.44533239841857086 23.87833692718005 2.121282761413878
C 2.467121297455735 20.07833012888506 1.7302993228626506
C 3.4427842673976206 21.14338612707843 1.5750049070415724
C 1.1373653346809909 22.635392136115374 3.348470915460024
C 1.5350326576210098 16.776013263450775 4.188793718040027
C 0.014337795499880235 16.947940955683723 0.927131561757733
C 4.5226884249485515 21.618413640039993 0.7780840433111064
C 4.31525781169503 18.27168766730621 1.7230793735663918
C 2.741930021169003 20.42724353959282 0.18942734499755476
C 2.360846656303281 23.700821267207935 4.169612267322181
C 4.222263429448995 19.757449673028717 3.6505723426922003
C 1.4334193349746553 19.318306161071373 4.042835312971667
C 0.42392437028802077 17.59415508626223 1.369059735731002
C 3.8822247438171686 21.28923891889457 2.4725975062849814
C 2.744098477179014 16.821497959785678 3.012706476771983
C 1.2141284231240634 21.878698782843035 3.310254212693349
C 2.2888199732887498 19.841565135735706 4.884743746040912
C 3.0809509129613515 16.074965035203483 0.48196101572895444
C 3.611843516267731 18.97434270380571 1.5068940545433867
C 2.3182017952902245 21.967363162165302 4.769846287526978
C 2.8960844251237727 21.31024250540503 2.5033503940582404
C 3.10239577157396 17.94412712284501 1.3044658297297391
C 3.1532949438491995 20.81948486100301 0.515925399068361
C 3.253424147653275 22.25813670575736 0.26892192738451504
C 3.32243203554581 23.989139916653077 1.127905807023013
C 0.4555993099180311 21.14816136248791 3.354358317877553
C 3.387984012301844 18.376606134615407 4.17859922858311
C 0.7256930994075483 22.23380869839432 3.5790847391150082
C 2.059256001038405 23.69007461465631 2.0905754761685595
C 4.412997687692012 19.496880082946376 4.0397264381292395
C 2.0372875898854934 18.35494788034931 2.272350094269482
C 4.1482019041306 21.887467835683644 2.1648965758677754
C 3.1890242372161532 19.32677224671026 1.6052602525380495
C 0.522839781304899 17.030590295932242 1.447402176802547
C 2.790066068643113 16.371368817370964 3.451117260735699
C 2.7015619954017964 21.39141162333689 3.659999637350659
C 1.9021228134554473 19.649795202378698 2.7866696094483694
C 4.041031018148608 21.046008915902153 4.375601618127421
C 4.46389669579355 16.03042779723583 3.7673450096554144
C 1.917969894890636 16.073014493316123 0.1060990811842838
C 2.1947122669573678 21.094906184312524 4.2100406745582415
C 0.9531661339569436 23.807341116601776 4.515793554810449
C 1.8889795796080366 22.924231043049332 4.415675270628544
C 3.349542120949601 21.001232552994423 0.6999106294108831
C 0.16557164988559248 19.74692645990253 2.494876182865612
C 3.0144720822203928 16.76103614401951 0.3276396717632074
C 2.757060559322546 22.017127029122037 2.8865632319108823
C 4.679168429787958 21.88491057491912 3.796645061730479
C 3.105198364995406 16.361084747671942 4.152806944252267
C 2.378802139457632 18.12364201484579 2.6481609327799696
C 2.844092931272958 23.1201817143419 1.5902922127078662
C 4.9796358350518535 16.620541006314372 3.1471147931226326
C 4.154976233042996 20.706069917054442 3.5290199431043447
C 1.360490929340083 23.01659419273596 3.749046453136029
C 0.5695436908546297 18.04397070396154 4.935741594862413
C 1.045233005101876 23.534598363656528 3.935585993403798
C 1.9782149803880271 19.763123394738958 1.8227343517219556
C 3.769787828309309 19.105802699571374 3.021724248366407
C 4.2554987399868685 16.1479354381602 0.1641720885718856
C 0.09612159003788145 23.845228614125787 4.935313907731602
C 3.2837495752251975 21.01131768343479 1.855446154216374
C 2.5952727299666583 18.451535126450427 3.8621858334069303
C 1.3625287956188297 17.452816785785025 2.0643335336047453
C 0.5755617536115065 21.40067573586762 3.0534217270223896
C 3.5038195570382973 21.97955329166664 0.8150651406551673
C 3.6085861590265593 18.271306535486403 3.8869352457476856
C 4.344319830560549 16.35329692104573 0.4494751869812702
C 1.7099034139966662 20.62794773050654 1.0612352312631446
C 4.643334740431088 18.43493701511846 4.035491249700856
C 1.3688142651338098 17.741102174598627 1.7169630289921534
C 3.4685412964414124 19.9617308553047 1.8435494552343905
C 0.4326499221193353 16.45185095020643 1.7936834553061176
C 4.884393374036843 20.218639681869313 2.176374506869632
C 3.5515815247989484 16.023091852384844 0.6946321137669775
C 4.859609124721331 21.59891378886438 3.2683232474474284
C 3.5833386300709122 16.925943493678243 3.3006691901816616
C 0.846471066196629 19.438745723312692 2.5814676921131854
C 0.70679171443015 18.38999171532331 4.441889932826402
C 2.166290642293564 37.90185302825996 0.47358180837373476
C 3.258634949579839 35.72352465431739 1.511011245811003
C 2.9200752568397874 26.556175065454376 0.22622988988998893
C 4.198280059752239 39.03300478810191 1.858154773299836
C 1.01494460306348 32.77222904722025 4.594729631139233
C 1.7316945561796442 33.984686266158526 1.9546223861777445
C 2.570928000154667 28.467350484039326 3.258979699117301
C 2.304893941391655 33.786274771329225 0.4504387683188571
