162
#
C 2.1664896917354364 4.419190091477433 4.351180880122669
C 4.802530679364533 1.2486112820738655 4.220492589187245
C 3.4052000416730412 38.679105498492106 1.615612882579951
C 1.6176093441497383 6.978831961062324 2.167280862119469
C 0.8343360131108094 15.82341370054352 3.2555865115863396
C 2.972631123709349 35.85140046477606 0.3061641925115807
C 1.1393857554863587 5.238191229951316 2.3099311489309
C 3.214543811105064 2.241613985038777 2.800111206513161
C 3.896477663588875 19.219389804084706 2.939755193546504
C 4.428559562258472 22.48388958814847 1.296190132642523
C 1.9205569082436966 24.034453463170358 1.1366622291517505
C 2.3601034851306846 16.314549798870523 2.5803346293244287
C 2.0996647995325852 21.280290079437805 1.3183129080601754
C 0.3312574840415098 18.423681963343387 1.5871043147217598
C 0.5591415139519464 23.554335979295317 4.420425219647573
C 4.616609425170024 21.821960767252563 2.5995991872411044
C 4.167499030506756 17.90237487082192 2.0389583774590814
C 0.7083521218758739 16.71305162994802 0.04957426409877569
C 2.396174601387513 19.62120386253883 4.669604777433295
C 0.7251196610458166 19.69507101004045 1.497762267081889
C 2.3795224688067522 22.014056215259366 2.500418710335407
C 2.3320570799525795 19.107512650820656 1.0586491995965142
C 4.132459598647824 21.706631967561016 4.234044566458524
C 4.305647681623765 20.999021834186124 3.4907521668780395
C 4.1208853079764785 20.57281920864075 4.546248472988156
C 2.4784921346731528 21.793105240976633 0.2277265134096016
C 2.7106624665132277 18.445091032030785 0.044365263828454016
C 0.730923280057854 24.547454832878316 3.382607901365263
C 1.8793277907285881 18.638403939434394 4.370962112541858
C 1.7777442667404852 22.525315122892763 3.4119642080705055
C 2.8855339649707004 24.51224763078079 1.0346046061657628
C 0.12130285034461466 21.439879657377336 4.11187902749857
C 4.105912412738306 21.411052741390396 1.2835256324816249
C 0.4166147917250298 22.263678612257063 3.2662319956358243
C 3.575512877593696 21.943630177276983 2.0325781528031106
C 4.721491596434965 16.211622601425283 2.863756267495264
C 3.3089527644783416 22.495796006474645 0.7801369564954376
C 2.9042558551852764 16.603746761023842 0.6046733996908755
C 0.6622787826244451 17.625868269675237 0.6398048231029727
C 3.4547085180882373 19.644216056889526 1.581763999790606
C 1.5957570073093255 17.344587480765775 4.632554129603814
C 2.2792364677697305 23.591211829364543 3.3947588697580504
C 3.074427371243152 18.911735781556615 4.081490586223822
C 1.2847847549862104 16.153012143116182 1.414001746598755
C 3.109169427716227 16.160749592047846 1.571007687060998
C 0.4457184355706081 21.232378367587124 0.5719189594363038
C 0.2356740538372786 17.541134320417346 2.299154131526282
C 3.540314447025683 20.410193033810295 3.0804660022034165
C 2.175920324808422 21.09390251754708 4.436349743402002
C 0.057332730443058116 15.47253267593473 4.547682190380439
C 1.4929700092677236 19.59650160365725 0.4104370257147867
C 0.46966842433814915 21.220401844551727 3.155167049470757
C 2.236156865028754 21.084807393363064 3.322362466637112
C 0.7402451896682753 20.114318699599092 3.7200233386300097
C 1.5677561790027685 22.223466489128228 1.3161422571897927
C 2.391365069383784 19.89631506518806 1.8973017288886782
C 0.5451019923900109 18.78582667764539 0.48501261451598987
C 2.5149394082642136 20.13878793971356 3.175173634635975
C 4.694757361697159 17.81779404710111 3.3746683361499095
C 4.322005252225683 16.926864887635464 2.2711412736682295
C 3.709958615213424 17.197331748010434 1.1908266175275817
C 0.518667782562076 20.33167381639217 2.2915359557247563
C 1.257368985126727 21.352630292194906 3.8357879216880497
C 3.801391321212675 17.35371681901849 3.1321641462816636
C 3.0314394738652557 17.192926987832102 2.3214908759024633
C 4.512089621058055 22.226749602281842 0.08645015300035433
C 3.4815639167641406 16.035186372862633 3.4997235029536733
C 2.475875368961577 17.820710277489734 0.9260606623723452
C 1.5845359048200134 23.964714854880086 2.8278408425007355
C 3.3177765080892607 22.398098204095977 4.218757743580698
C 1.0964386575669016 21.160347477373314 1.7688937461715366
C 1.7639184196263102 17.416965415578986 3.5596252220089517
C 2.0149289341037804 22.39020843322748 4.546267384340603
C 0.931905799760998 17.984867957923747 3.8789198354241763
C 1.7082839502221587 19.455969899837367 3.742836965746128
C 3.1371482557332264 23.594580711056235 0.5895826518169875
C 4.939164580873824 20.01935280758897 4.398638488594826
C 1.4241699100406293 20.547715696986977 3.0110781779776308
C 1.7148471027945136 16.46275983134003 3.940512120698463
C 4.6341563292610015 19.679860077687724 1.9903004537108162
C 1.4681821566707205 20.397189534525502 1.2325613128009307
C 1.544858932064742 25.2236780778322 1.4839705429977534
C 4.9337941446739855 18.38337907878714 4.777807923863913
C 1.2149824629962072 14.614330692563964 1.366414660746694
C 2.0578119863087845 18.49251781064802 3.340745760555497
C 1.3730988947055434 21.637818891204734 2.7870807437925564
C 1.404167813214596 18.929400045431315 1.664676339016682
C 4.717017988749152 18.53922940535474 2.6769186476044284
C 1.616084126740849 15.107500613248824 2.4713848036552926
C 3.267550137513311 20.8034534262267 4.129289486597095
C 3.2673609740056935 21.53508451162937 3.3264520651586342
C 1.239160899077855 23.36404612351193 0.6618902192797039
C 3.9467060219278016 15.752584016278707 2.141434943061557
C 0.5463325547947245 19.126633223461226 2.3666186124430175
C 3.8630703780498434 19.775791149007645 3.9207946249834573
C 1.898172736562523 15.39681963927194 3.4410389424517276
C 4.4701207019667955 19.338803687198297 0.11820513131200056
C 3.450050995670588 21.45241667370431 0.3862158911658466
C 3.480800356756554 23.956859681595475 2.6730895404131214
C 2.023323858252245 18.205070055789854 1.8884522289310535
C 1.3901394484381937 21.7552730705816 0.2672692849389703
C 3.327403121829827 24.18586422133076 3.7466051562753506
C 4.493279828690836 24.8505329015922 2.2238924843470333
C 2.1026247433581564 22.743959645031417 0.5407707056433629
C 0.10762850397089974 9.358915491053951 1.0786245813912518
C 0.7796563257616943 19.017167724078494 3.4879241473007747
C 0.00797074641939588 24.52935947344636 1.2748852515573494
C 1.0323591030898078 22.27999018113614 4.186052024490353
C 3.9809838788201906 20.071265274288272 0.7581587959877578
C 0.7621128843540252 16.55750018637456 2.248313503217087
C 4.631364596155078 17.259351663933668 0.11474599289298895
C 2.696090381394903 23.600754432288774 4.435841001825567
C 3.346652004736484 19.286993209607335 0.3875726648132328
C 0.5699281743797365 15.335745162187912 2.369197406814501
C 4.869214668690983 22.597658848598524 4.023397788283329
C 2.886424425251544 16.50667773935371 4.336090572639476
C 4.852996760718955 16.65396575194929 1.2203860855982462
C 4.020701677028342 16.714572952518896 4.02789869737798
C 2.5300527682611396 24.533843760733895 2.8336462750978573
C 0.4588925856936903 22.561274631810043 0.3243488512802297
C 3.511705627279622 17.177628759613874 4.969979644442038
C 3.063954396033944 18.146022358813866 2.96729662323038
C 4.495950502147503 18.046135045461853 0.8430340216835649
C 1.7772190035960365 16.883469853642776 0.6750115841304056
C 3.9017850964719742 20.89259042426605 2.2641247264555755
C 1.4847781396269748 18.251309557353267 0.6902349363859721
C 0.9243695681219399 23.244443624872883 3.3875694044059794
C 4.507751417490986 24.40929351239075 3.3147699822073804
C 3.811092531992836 22.912958815228336 3.2098648121480777
C 2.2892342156880923 16.89980719936611 1.7000385849908939
C 2.8260575005712254 19.24955062021192 2.768817235447467
C 4.814348354088004 22.76804211103016 2.3350050873590926
C 3.0623632351736156 20.65244079033027 1.4295883823563769
C 3.6558259706936633 23.36879309812191 1.637721804461268
C 2.6240686640702067 20.91080839218859 2.329492940822037
C 0.4827421503196965 19.92919446570915 0.37446252310909206
C 0.8098785605420765 17.186869369904866 3.2073004303498784
C 4.6674826310545585 19.178913824759036 1.1168390044979415
C 1.8581112652562304 17.29984448776896 2.612146198138429
C 4.925480195875755 19.794132630233907 3.042225180855775
C 2.758577024445265 22.500162878109567 1.594149726611707
C 3.4683264367150723 18.074130896305153 0.5700584840591663
C 1.5280708315864011 19.254214380628667 2.761018058662187
C 2.7592918772028425 16.856260984585614 3.358187464354878
C 2.623123299780204 15.547765106606517 0.918036259094145
C 3.6031634608309773 15.946063649781044 4.863278754506369
C 3.130911120162007 18.376244715120567 1.8909046352622862
C 0.9720009864997801 18.098429555194592 2.744796649858797
C 2.457483765063258 20.456834995872764 0.38160209447920057
C 4.329760766022978 18.77053680205056 3.7329473518981415
C 4.064221043082924 17.798617361297026 4.349330950595747
C 2.8491375398992607 17.78593988678345 4.125286054260007
C 0.8089538916693529 19.44085161817905 4.570996906467624
C 0.2425275587610926 17.235186482523755 4.169143191430105
C 1.6842036496143946 24.863279518230613 3.9463508795375115
C 3.5463924991169584 33.425615646613345 3.3952027192212824
C 1.0399130856974135 0.26626669767043726 1.586756139177617
C 2.6659500614232496 34.840050354374256 3.923189744815592
C 1.5783051563645827 23.78894763976644 4.265523562338467
C 4.819028953236427 23.345518637589738 3.2130011197971324
C 4.8361537411795625 34.982770534605486 1.5116877587547277
C 2.7858611798221333 30.111796489147736 1.7296900716153345
