162
#
C 4.126123976551651 10.054438076400302 3.4991307559767497
C 2.052791185866018 15.407456775884341 4.195048967281685
C 3.041773665470277 8.694678208050968 3.1056095840319315
C 1.7141969650748623 7.384158974378451 1.8252735712335437
C 1.1180878009597857 4.044653542889513 3.7075425411220486
C 1.5561273839138123 10.943727272713904 4.361011799397463
C 2.9834498500129074 5.761968487179999 1.1163431168934557
C 3.168386527041796 0.02742964680619764 4.767051111743292
C 4.46163144887465 17.027891322461084 3.6310616348265916
C 2.954293900599882 17.05601841147548 4.269049244395865
C 0.1717613061673534 19.587514892349752 3.5566515105959917
C 4.931853897186304 20.8387925966694 4.7148333027269205
C 3.78903377803618 20.99048609497278 1.4843539081879369
C 0.7160237240064371 21.43833977691241 4.002099858254119
C 1.9849148397227685 16.43692365362582 1.478323702907104
C 0.8681997269124775 20.919465444614872 4.321357638498363
C 1.731635453981128 17.996652458088764 4.313235819502305
C 4.6065293454458 23.40495255244577 4.538897195100083
C 1.334301801974257 22.457229105466674 1.3711041874321361
C 4.362977789309019 20.246469939585264 0.04384159341660976
C 0.8130581759398281 18.537109199960657 4.9082282201945615
C 4.481556795258682 20.29841197674918 4.277839737690269
C 2.8578865806757365 19.410181805741885 3.8014644261138364
C 4.071273538053654 16.076849353700887 2.633139982701639
C 4.5908158548814875 23.486973161225816 4.815225191930218
C 3.0754904428813834 21.581434260728383 3.767965560236461
C 0.7042630890994911 23.429065892672334 1.6273620916643754
C 4.046521661610501 21.924653485461086 4.029051130718763
C 2.8168475493477074 21.010112544606464 2.8663223175750394
C 1.1739075584582237 17.03430985140387 4.473794354011082
C 0.48769075663169403 21.75435548053446 2.2077116688806613
C 1.2139574746153037 22.942214156711515 2.0512944997542615
C 4.578803028477098 19.16764898424996 1.3318394040052612
C 3.529327591251601 19.069717905854738 4.536152525335045
C 0.6927863141217055 23.794000533202112 4.5223157707310815
C 1.6753440494256155 21.805998696005336 4.619366340730137
C 1.392691174156847 22.039842058872956 4.953954578066769
C 2.4339437021683064 22.271676966080555 2.4191283182905514
C 0.572943230115216 22.80518525878192 0.3644293897361278
C 0.8788134574965528 17.83322601710927 2.1035024217870015
C 4.9343921403385655 20.526590978022035 3.1944783040864277
C 4.695925283078423 22.963098279751627 1.0742793020783392
C 0.39441733621420394 20.0652500098712 2.3402948475205108
C 4.695804310171714 20.138315624732833 2.4722743631147654
C 3.0520134348940333 17.017878654736915 0.047625261688236664
C 0.2770798602237945 20.90798367750614 1.1129134725108414
C 4.7662223992837465 17.279359407115003 0.49020354999298743
C 2.6455919052914325 22.093402820001046 1.6386354249370756
C 4.976871008900003 19.390678487600763 1.9485264969097589
C 2.7241663611911187 16.09383559002644 3.2146281245618287
C 3.0964848558232876 17.142508870226376 1.628242763104169
C 1.5911805939637536 20.093017942982225 2.0457886550435562
C 4.3792924588138025 23.947274744672615 0.07884683518011026
C 3.7562541815221095 18.323882250181246 0.8345329441778915
C 3.0584827170209516 22.265128403213215 1.2342697163182907
C 1.6446958268096945 17.59112680227377 4.041412843727887
C 0.6035084388215467 19.32930580156942 4.645524942249949
C 4.1460589768511795 22.315446127822586 2.3398124572779713
C 4.106752344763407 23.652050257307472 4.971152165843379
C 3.8054596159995944 19.829430267303724 3.455059744456957
C 0.883957092533047 16.062511937809347 0.1702615158740639
C 3.607083266287306 16.10708397596849 1.5578755182036423
C 0.8741493480956403 18.623892660920163 1.1761960180178155
C 1.2466935746613694 18.451250134142132 4.187214052940221
C 3.869615208320814 22.260078862522526 3.4327371705423326
C 2.6200766202341996 18.938407156583843 2.8606148363538835
C 4.444125756436532 21.26921092154429 3.7560372380272025
C 0.7297187567665347 17.50942135942907 2.291264305950324
C 1.1011480252847732 23.21330271075003 4.3220579619468715
C 3.9761556497689976 17.297729635282824 1.6972158918045084
C 1.506104953685437 20.979935877835775 4.026526669465177
C 0.7211739900692143 23.03754200422012 1.271966032451961
C 2.4009094790662884 16.49034730199902 2.1605281121551325
C 4.9878329572311495 20.127701580595463 1.294247881427311
C 3.943877073624766 18.908925432853906 4.390260496642338
C 1.8360073632530172 23.171734648133004 4.313868624497001
C 1.6295722449270733 20.543346064429038 3.653080501486013
C 4.362632990482458 22.033933387064497 1.8185582857306555
C 4.775979537807041 19.53177249542398 1.2316007387079198
C 0.18606236968463863 16.801398696385426 2.2094505099285304
C 3.712845763479441 21.063178209600757 0.18837530779300504
C 1.9679233702277172 19.554051399263617 1.2250556845355494
C 0.5950513303328209 19.072334873507103 0.4560572049990924
C 1.7560862411379285 23.819194191227627 0.1615930450229186
C 1.359876160317045 23.64803169812043 2.037575861261271
C 4.82605403036544 18.747939988348694 2.235214006149555
C 1.649860048685775 17.04177836110049 1.3818062318323894
C 1.9340302905238742 21.62633938552636 2.7079602867109975
C 3.7936159904583615 16.5057982595001 4.432795122385849
C 2.6081665646311607 22.739508370163218 3.1346831057481026
C 2.783434657208044 23.668314141428155 0.41714100846339197
C 3.018252337021321 19.03782317492153 0.9121010849205735
C 2.186508606988431 18.218484666458988 2.9593777847264313
C 3.6555016342656623 22.974635352790024 1.1263739753556452
C 0.44423584632806323 21.2997823038944 4.282251817630405
C 4.096795908243531 18.501970730751275 3.6718470159223537
C 1.961780990469263 17.336966008782856 4.912915084880663
C 3.057366169067709 22.141301081810774 0.04485873012610053
C 3.165086908518685 19.29260657995778 2.0510456982574214
C 2.486198729586641 21.44776241778921 4.536677557400029
C 0.4594273604185667 17.431879633600225 2.2494313919745723
C 2.9406753833405035 22.31976814762544 4.879450307778223
C 1.809900713464629 18.031670216930333 4.716383641949134
C 0.746026263014497 19.40307248292319 2.1948891139054254
C 3.257110381217045 21.17767994370731 4.301255976719977
C 4.118806486627978 20.640552920849363 1.4302079921926814
C 1.0984727072769735 23.834397384178043 4.919984906729171
C 1.651241402746673 21.446180480527214 2.7601677785598087
C 3.8937172736870886 20.356080418201746 0.030466671243786214
C 3.0465449941114837 17.9362489486642 4.648091543645892
C 3.656043363085559 23.573236522194584 0.5272274797553372
C 0.589210837351225 21.549705637783074 2.866748618725878
C 2.294468002166963 23.23025932649691 4.704459360683343
C 1.0379916549418726 16.42319469386603 1.8286519027366706
C 2.719371009298066 18.631085102916597 2.458506974364425
C 4.302887640550258 21.48001225605666 2.8708035387866078
C 0.8560370767063052 17.394220666899603 4.436089744621576
C 2.9800409998112363 18.99141488096958 2.0213567637481047
C 4.740341309327423 16.46240664458108 0.10068831712694848
C 2.006660858483864 22.536456867401462 1.997503643808089
C 1.2418763573520986 16.21002168298101 4.9555951381116286
C 3.6411370621165497 18.318063803670704 0.51682904541139
C 1.2382661382530824 22.915541971966395 3.589919045999504
C 4.453578607137804 16.074049483821494 4.392848098758227
C 1.4272679044804 16.441442827218047 4.200601885211121
C 2.5751325634213145 22.317386762504945 2.2889245440977573
C 1.1120140626077935 19.285822414584356 3.1363131024840865
C 3.494934161680467 20.21410121129665 0.7081402975246803
C 1.5115625148603735 20.47396278471102 2.6078615972674113
C 3.984802407446955 17.160314617873524 2.130029253735203
C 4.738224390075062 21.27806720709431 4.750518338344605
C 3.9851701385799547 20.084762664592724 1.9586541518488816
C 3.072770033782536 18.16698387496169 1.9475601380625107
C 0.07241026773414316 19.031279692579744 3.2896598716500103
C 4.9664870670962555 22.616259616442875 3.7811108550241226
C 3.640450625791484 20.710280280589917 4.386471756022467
C 0.5440414265721 20.31033081052741 2.691445929226367
C 4.158805344297888 22.85585379133762 3.1024268657526473
C 4.348515575453906 18.856046027567558 1.5600002840854421
C 2.730182668749211 20.82294986646081 1.7937292524493826
C 4.779852583964546 22.04717297304741 3.1602811547920204
C 3.9130053482912617 20.81319906897749 4.607839059682365
C 3.5279402839938245 19.875048536670043 3.1331009591469727
C 2.6070905482061315 17.570642471770316 3.0731498452396417
C 1.7357126467277202 17.32379864738924 3.6514311464800024
C 1.3506335005496521 17.1254954417943 1.7557079250804752
C 4.517416732619948 22.11314279804605 2.5873191840615912
C 2.7723730301290312 19.788494878853676 3.6018769188558535
C 1.442102219860368 23.344091389854732 4.504173422904956
C 1.9039859553179417 18.573522840984072 0.17002937841902155
C 1.5230232001037414 21.733696294976646 1.7133112225384284
C 2.5427238952608002 23.30283270078905 2.700257079688917
C 3.0912918652378445 21.168007242597277 4.938996918246886
C 1.8950131841969005 23.257200972310716 3.202173298251507
C 0.8258794386588947 29.54763722912032 4.604178519960421
C 4.152876121678284 26.428122121681383 3.6432763836539923
C 1.7199877554680976 35.7709909661198 4.0919331444468945
C 4.423387610864826 28.890746054756345 2.3498337050281974
C 3.746227276150611 30.214867587207205 1.3820850180828366
C 4.5052944887719795 35.958295936137375 0.6213378143960052
C 3.8503769224928153 26.166344938619453 0.5406425826210931
C 3.593116831321121 29.277427176169645 3.9623507550324644
