162
#
C 4.443168117504782 5.765016520808624 0.9343262454262791
C 3.822925550950891 9.524991855081812 0.1943239440422151
C 4.359893126460718 1.453057799651063 0.3618353061579066
C 1.8875598849959356 15.45816802278863 2.8312736633385276
C 3.763107217277436 4.056638674511067 1.1350433486881328
C 4.684488656298183 3.5121287389993334 2.097781173220294
C 1.4518100056536793 10.61154802699303 1.2639039791523836
C 4.119286011076551 12.65705678214415 2.3841810436753352
C 4.993928680676816 20.442918424080062 4.995456047233139
C 1.3587190053630045 22.092864953217067 0.8599812275633711
C 2.628879454008526 16.413302848917226 2.8740201714862987
C 0.6741666703667865 20.88978720600697 2.864041465683738
C 2.56627365019395 22.213477890883567 3.5652879425135096
C 0.23204306718532908 20.439582034685152 0.41212736737636146
C 2.3188943119728753 22.82819774636696 1.4431167205214894
C 3.601626298473502 20.88407868720619 0.7806436937880251
C 4.211430204831921 22.345435391065706 2.8026635387518457
C 2.055804446055149 19.775690402053595 0.017884124502893783
C 3.607549339305178 22.582101334344305 1.7912730776339676
C 4.99890359408284 20.234343459456994 2.6606175223940083
C 2.1828507244332003 22.226311877488513 3.728238045736731
C 1.6735898238984643 20.23461690458538 1.408653467712636
C 3.9772432669940727 17.01663687313935 1.5602034532668907
C 1.0409557804220082 17.567496437350485 3.156494196556502
C 2.110650075073396 17.34341917841583 4.715756313585346
C 1.914636635786227 23.72210619885951 3.2070634809342398
C 0.5353094893830806 22.910718877768854 3.367791884886389
C 0.8445700553830499 22.161366506209863 1.6783150002639995
C 2.671319924729266 22.142535300816018 1.9594065248916193
C 2.1982719849716297 21.971274147650238 1.1932128112450484
C 0.7869117247810992 19.859112798730308 0.9897987393903773
C 1.040709543579188 20.298992111096986 0.03726958571702077
C 3.6675216896088574 16.802467097557702 0.43332895056162724
C 1.6702960144778123 16.227666162612255 1.8116525461920934
C 3.1697852342744275 21.715854471406967 0.7236276365626415
C 4.413423539972839 20.935697154444366 3.2766990302377774
C 2.7342539447444936 18.794016199945702 0.5639278285275889
C 1.2514145509097507 23.216238572591664 1.9992369783132002
C 3.60697040040205 23.002251301609526 4.130591581982479
C 4.936713304514453 20.722334393412527 2.485725094972466
C 2.6397757378216684 19.040698490567753 0.34623272022624996
C 3.223049501749519 23.439645467168415 0.5986414475927154
C 2.563546602340758 16.745671754607987 0.0652108195840162
C 1.2776364502611108 17.756689948278545 2.782710898510877
C 1.7278373568018979 21.23557325841116 3.0352906182771635
C 2.11301997075012 23.49735896899883 4.462684567666448
C 3.0999113715811126 22.828604469898263 1.627308168948693
C 1.7093019307293367 23.741633481057086 2.4860497357897993
C 4.085223131354159 17.50037110926964 1.5430696506942483
C 0.10156392578626827 17.080291488240196 4.979612023355283
C 0.6574150176671711 19.392395569420607 2.886151436107886
C 3.9056557376675647 23.22369389403223 3.909271561967642
C 1.6495106436056195 23.15124525628099 3.60356943736136
C 4.725300334859723 19.730818723057936 2.5664175918626118
C 4.849365744062414 19.772642369217756 3.9665505001045127
C 4.417286052407704 20.456562326810605 1.1290305406022483
C 2.7831430715686336 18.84643386946427 2.901949158724409
C 2.702056541516294 20.469819448955793 0.5472712123332035
C 2.896760849635855 21.35418784361672 2.5429834923304364
C 0.11350226370661409 23.51652641503899 3.562713535427382
C 2.163310288823141 22.39132298811528 2.7139224018913795
C 0.0406730857840526 21.175244718953323 0.6698416113846212
C 1.9155786480044696 16.930599213116757 2.410068199357789
C 0.497078103841212 18.803434712298326 4.4182879603862695
C 1.2890873715887503 20.820048787774425 1.7047427832592854
C 3.9408818161447017 22.79056596015067 2.773468963793695
C 2.954385463298932 21.08358901537888 4.437232214519724
C 1.023224672517979 23.98590364830443 1.4176315437797848
C 4.777567746722618 20.803968408497116 0.6269333382846043
C 4.441756122065719 22.33543258898556 0.42894565003659624
C 3.350952750687294 23.811284635497227 2.8251781161552847
C 1.890045598731348 21.7079603094937 3.604701057939386
C 3.761754123887726 18.547690860210082 1.9644584858858978
C 2.7501575979722515 22.585173435376845 3.1845999211867966
C 1.2090715475226488 19.987603533776273 1.4680661008753875
C 0.9127166822321481 16.40791514446859 4.6292981804010465
C 2.185725674300876 20.477799860004712 3.046177689746301
C 1.825202283041265 19.388298648507977 3.353947432755196
C 4.778504572755916 21.06214173077084 1.5196211346606319
C 4.904521017345755 17.695569042423614 0.8043496006838563
C 1.1052295120602844 16.50614884587209 3.942814321426752
C 0.9096675965393158 22.595903979828392 3.618441422709985
C 2.5954598257596273 16.9797233906921 0.529083838007226
C 3.7870871803212722 19.992188057596387 3.007825303472756
C 2.8001549984235745 20.250028785628114 3.1962604795230116
C 3.5542619749748523 23.288852566062552 1.724234118218579
C 4.734674814537972 21.700014112040947 3.9483203491179646
C 3.1713231952383687 17.516129340856736 3.1217848895732403
C 3.5582764672182208 21.120890406201216 1.5772302603153694
C 4.978671290543379 19.645483160846588 1.1355839975100697
C 0.725363810882031 17.266254777162324 1.3585041512633693
C 2.1817371187390644 19.663177796027945 2.9586917232356376
C 3.1143996692761347 16.809111680179974 2.161456694793533
C 1.165608318451209 21.216831529155844 0.055573827743562454
C 2.795052895612929 16.537742300955944 0.06670432045244368
C 1.4296405729026351 18.567588628602042 0.5933119908094953
C 1.42631584920555 19.758390376933104 3.4026840255487416
C 1.8928431523290263 16.83233289836628 1.1955036330376434
C 0.17001019188117084 21.530997157841217 2.362430663750437
C 2.7407211807537424 21.1947265434299 2.264898655677177
C 4.479088950592872 19.939614900569726 2.8276033850074844
C 1.508353606257481 16.493384234642154 0.2946915097789621
C 1.5222129717047206 21.609139539097267 3.540975761893377
C 3.6864615143957713 22.836656316309753 3.8202915055240045
C 2.734937636737848 17.17322313339277 3.9558275359194415
C 3.8511299893134723 19.197239156881963 2.220532932425617
C 1.316701968437291 19.506636184219623 3.7653206171591984
C 2.496563666204841 22.42387223312821 0.3699721392721683
C 1.2532773959308408 17.931934356407478 2.631846665579264
C 4.850005475373546 20.09377481360683 0.17788656650208068
C 0.9471330275442186 17.311813754453805 4.785763444345312
C 4.191003945088248 16.016313989420134 0.08969445469972082
C 1.8335263511047044 19.342526008893252 4.189985382610504
C 2.242656561989187 18.34070362044299 0.29757498082623957
C 0.6540434180375937 23.223438353511007 3.810521242323877
C 1.7849413509990242 23.62579956380899 1.7094043056738744
C 2.8036835865911574 22.910536918853296 4.716595812912194
C 4.928254662878404 16.284561641683606 3.8738024796082655
C 2.1567643413488318 18.5096027538938 3.8055769481772113
C 4.633508860884118 23.569292606822508 1.793080336556342
C 0.5957159282093188 19.26198339115222 0.508535591975805
C 4.833710234717145 19.137089523585626 1.4787368408157742
C 4.941112115519246 21.650708209953535 2.78242099081256
C 4.929271396128838 17.366002069350944 2.857991228715326
C 0.6363481732296578 17.77926051264992 1.6575208710327693
C 0.6800101440677742 22.48406098249242 3.860042895447671
C 4.970675012883531 16.46637027000242 4.076606282240738
C 0.9220973338446142 16.395263603008893 1.5424536714387265
C 1.4711300402065397 17.861060308807183 2.403880040355067
C 4.269417406002812 20.766639097887605 4.208221121495609
C 0.6562314953633291 16.30181891553015 4.618044447025302
C 1.6083166749041604 23.817069441686 2.421664200048463
C 2.7644748028707755 20.077106297568708 2.1744935729675516
C 1.7710666359260574 21.024826458283584 2.103080142922746
C 0.27646660346234087 20.778109039550614 0.622563662874685
C 0.9059316271092949 23.384744496724924 3.6846782696641585
C 2.797608936096061 19.188159549043664 0.9148219324098184
C 3.047241600702927 23.747791290726653 0.6070790238476054
C 0.0712375469019072 21.975346717793986 1.8173295401189655
C 4.801952322555202 20.4256936473772 1.835764439096335
C 1.4327353770736768 20.508025182398896 1.4319147888134165
C 0.3362563255147305 23.355627823272854 0.5911718117586245
C 3.655827359619526 16.19547836879132 3.5394869568718947
C 2.515365176830992 22.258107860344836 1.202445040505205
C 1.1762160108878223 20.141309094228756 4.5721994042374545
C 3.424879855488922 18.313020093581855 2.775977243705366
C 3.4905997473391466 20.647495889319643 1.0066398092424622
C 0.06316170890111106 19.554012392857462 0.1783361397649763
C 3.322211354333274 23.09994222842269 0.9120829630625321
C 2.5465467325348956 23.44220787630228 0.7512166834103923
C 4.3706984708997565 21.306362563983836 4.359864849182612
C 4.86627895844367 19.48858289579463 0.7819079290667869
C 2.740261590793124 18.336345815102884 3.2635322964154434
C 1.0439101672874174 18.910048589666264 0.3390051371098979
C 1.8344101657018501 30.067789967825554 1.4736179705121772
C 3.9719275777815914 29.48595145396684 0.17843456889171272
C 3.9214562655129597 29.289430462873472 1.044329246209423
C 2.7019268914114303 34.14911468813413 4.945167831046694
C 3.6970867599885446 29.228559207874618 0.0011040092132580392
C 2.655806169674675 30.250217535168435 0.2003110641073197
C 2.5756778314976674 26.618376999566735 4.723223800087577
C 0.8583836977417836 24.235109909015264 1.1590417578798178
