324
#
C 1.1021105806060427 10.968188769301364 4.624677827024742
C 3.2362796248110897 7.271598294871932 3.21557470710668
C 0.18683504079880453 12.931702434516348 4.228010178949969
C 0.836453828599299 10.46981106714787 1.6716410391798664
C 1.1394962912243582 2.339500320146394 2.755893024803452
C 2.8449006865793462 5.576766437624988 2.468433859529211
C 1.069550193440597 11.560964515115035 1.0015607844192975
C 4.713734700135531 10.859745084651726 3.6739164269715796
C 2.832320996886934 19.463185243161107 2.7358315399796096
C 3.9015602470038004 21.13862313995599 4.946015379978399
C 0.15487237914161012 23.84063827292273 0.4917084257470822
C 1.8718331124162706 23.642371230937197 1.6726433166187697
C 1.588622177177993 21.367365187189506 4.387748002045276
C 4.363579130546183 19.8977582493645 4.175284995410044
C 2.149120096806125 23.860572377294076 2.811394528952753
C 0.6221565511454735 23.144835060152545 3.8530098827244226
C 0.9856276239871747 23.39682939398204 4.182940470875326
C 2.1640513735821276 20.622128688473808 0.9793894361516325
C 2.096544545030529 19.027141112409574 1.6057310053048583
C 2.64978838511822 21.216371364037336 3.3587949835322877
C 2.889191732994267 18.45745480597561 1.8596634571053712
C 1.0781741425364355 18.0315838289729 0.12694870882442255
C 3.877211458630019 18.02730979539718 1.9818267383804304
C 1.0876259404283677 20.705033532574312 2.894021376065488
C 0.16651169053730375 20.81903469051965 0.5207892479455944
C 2.7526335291307573 19.04464014890962 0.1472305057031309
C 1.8296700206578902 17.489256145868602 1.762329455764509
C 0.9586843677503004 21.89835389283781 1.3333831886624874
C 4.985486429451283 19.631946875147754 0.09588604097093667
C 3.6122975371420796 16.247137510481444 3.55640551918714
C 3.4062382345498943 23.01540959870516 3.432274115538769
C 2.7973968514004808 16.95140994145697 0.02395703840780805
C 1.2755786663642428 16.86802246558153 4.501324490002023
C 0.36916566949734 18.236547983925007 1.8002833269116914
C 1.2739477650424487 20.709044053172903 2.38965222753258
C 0.1398856437537055 22.500139888881694 0.304832476201225
C 3.7864496795124056 21.753299109592433 1.4469742165165966
C 4.587487524102158 16.123464286898106 2.912652015474338
C 1.4998600553854131 16.863486561260274 4.592869504630834
C 1.6961570402595227 22.71413205379232 2.9009430692404026
C 0.7468054890006909 22.385629345185706 4.746788014699816
C 4.087752864313376 21.32954256185129 3.987465002677371
C 3.7512548863293866 16.620655469109746 4.324923949596226
C 1.2470088309670235 20.71058750427283 4.978310869021433
C 0.6216822064645405 19.825593342561305 2.0508899679466013
C 3.0186477800157876 19.913401294396625 3.992373418569577
C 2.0122867238983155 16.905443137702587 0.08087026449893286
C 0.21456650999255145 16.452992784082756 3.204546403399618
C 4.136062608426602 22.344255165781938 1.991286668553351
C 1.0159026106780251 17.39105596710376 4.240614488510383
C 4.292891998604857 19.56329081381008 3.0170184599957612
C 4.603041174036941 19.78295966053968 3.478064467499251
C 0.9879944262324764 23.336775962967423 0.6767165525403346
C 4.571000220447658 19.57618739431561 3.8013035100443373
C 4.1265781352080495 16.560738901748877 2.5788855007752587
C 1.4119513009973816 19.863081906335204 4.694583594429697
C 3.2098813867502836 19.922986762270703 0.44071173439456546
C 1.2937294664140198 19.90612693874825 4.79896524236816
C 4.451930702099762 16.482773430705727 4.302323278082175
C 3.012376301563087 20.208575827497384 3.2879019334922783
C 1.5021635404139055 18.23118070657339 4.861600491905663
C 2.541116447351932 23.904240821323892 2.851867835790788
C 1.4550939156903708 23.22019613553161 0.21700030001293058
C 1.1586724541929327 21.37602757380802 0.4733167031633684
C 2.8938183631187346 20.114012230312376 4.178757465285175
C 2.4451167690006095 22.29609796136318 3.2271219614749875
C 4.082479789016197 18.503122604782984 3.7667040796133824
C 1.5577819113257485 20.850052463355752 0.7960716887320946
C 4.8663132826556215 23.13455066997758 1.7155465086462063
C 0.23120023412741386 21.429229768932537 1.2534385354571431
C 1.495698279879099 20.632537878771092 0.5183211712156072
C 0.26272965276744886 22.696740829777006 2.7634471688406896
C 1.8303265465009888 22.160325904547456 1.6764254783442993
C 4.683070635188261 16.244673936478875 3.11584776204759
C 2.946817975619356 22.079091665853262 3.4572089345524737
C 0.652695225054985 22.119112281572065 2.852341242039984
C 0.8036025787875806 23.162068873824033 4.533603632039105
C 0.8427557790609164 17.479488492732575 4.166927472396261
C 3.9125222680171907 20.050073511667176 1.9027649962038913
C 0.13189912282416671 16.119519296329763 3.308343398610711
C 2.3249406369151826 23.45350921443149 1.4078484108025113
C 2.786971019179853 16.103495303796947 0.9900122343316253
C 1.8940821033139277 23.27759838554865 1.1309971965832228
C 4.3440721566384255 21.050372413289878 4.219749214884735
C 1.2636167138324055 17.27437660531328 3.0461495536046916
C 1.656315368758421 16.352530092644077 3.727737891968936
C 3.9402556307498853 18.8906065912549 3.938065142295315
C 0.5588483871228572 16.087760181687138 3.4561677907631223
C 1.1820945316662856 19.522998888474127 0.791784009340179
C 3.458728296877967 20.30920550610029 3.478935306431645
C 2.769643691875868 19.372064354693737 3.7787708683369243
C 0.5357520482752265 22.828312172868618 3.1628228107043768
C 3.218825516266617 16.678149603438627 2.229365320546473
C 2.6922029720350427 21.589411582505523 0.9008919166371265
C 3.0009917518504503 21.561969550995965 2.5019918830098407
C 3.0490059132118024 22.957770366966344 1.156223973366397
C 0.7566084223979258 21.896312800221143 3.9727159706796433
C 4.05633390691702 23.301147998714338 2.50331375233565
C 4.212712685519091 17.62094962150723 3.9399061036125067
C 2.74790076394712 17.18591146758444 3.8812070823732374
C 1.9759266067407473 18.842879474207248 2.5320773160857577
C 0.07620973631129124 21.710229086248788 0.9004725401706043
C 1.2219122198806043 23.885300213569323 4.196194604703784
C 3.5696706986888245 22.970640676680205 1.6932945907794739
C 0.5756646247468089 19.162671935913316 1.5718858861692442
C 3.5294553601133827 23.645751114200145 1.517363586692591
C 4.347156932481447 17.71433591718472 2.021915165603778
C 3.0800234979898065 16.283952390590525 3.7376743348697845
C 2.909685363084968 23.999694427349123 2.226329377044273
C 0.010323859763060605 20.37216136053559 4.399456825812129
C 0.8812836012777531 17.26149021022504 2.385345751214529
C 0.5821499548051684 22.31125077629191 4.980114827493216
C 0.2510193566058938 23.685822171748313 0.47994454041685786
C 1.1509446309217763 21.82886340536445 2.736471362782662
C 2.260407687369927 18.56609080814073 0.7113405419039903
C 1.7195693716770837 16.790309052528034 3.8065865927236446
C 3.4150355533532437 18.133722365922004 0.5877003035737188
C 4.667559509833252 20.643328811971475 2.2003592691990503
C 2.25586664114718 23.84709897541085 1.5527929652612449
C 4.641964199220102 16.36748543794002 1.6500966493469775
C 4.910633821415748 20.262903823050262 4.003439738009951
C 2.5762594300725516 21.082716279683915 2.009364462763454
C 0.497828553263156 17.671576408126956 3.8885798129903995
C 3.358859996894986 20.90520666306536 4.209094721208627
C 4.593848813460683 19.30598666383828 2.2213657261251423
C 2.5628514169788486 20.23341707333336 3.2175699393451866
C 0.44280504470994186 18.58684220583286 4.050887627279839
C 4.3124042649136545 22.688282452152762 0.5284233258151622
C 4.3992499546452715 19.216398952327758 0.8546654923433933
C 2.8132256808845586 21.499190778145717 0.7370573582512169
C 2.100247649553973 20.478541868001457 3.576656833513971
C 3.638871004790966 16.392667790202083 2.8121816639007804
C 3.7450144012430413 17.392334425429 0.12390101404713416
C 0.4976217610880823 20.73491917911711 3.329303486944305
C 4.934306337933377 21.73221309687802 0.10618222896177476
C 1.8998305706356577 17.365346954025384 2.3641453021547503
C 3.0895664919795554 20.1955176348497 2.0254152184185608
C 4.967625213571362 16.268686142364658 3.972568391801431
C 2.747288842442592 16.728963137200857 2.597515547528015
C 3.130786593821381 22.139420708251407 3.6201219721510673
C 0.47773264409049554 20.55378302609936 3.7632338969936825
C 2.7447229475060486 17.654709964596204 4.431421935041619
C 4.287599219507786 20.824368198997156 2.30745328687253
C 1.60809621537217 20.435333187407263 1.0340687198683152
C 2.1807367361006302 23.229585870937015 3.705694184649772
C 4.47779782690765 16.25323157103828 4.771424642066166
C 1.0134371173696743 16.070033255757757 4.6006809566683335
C 2.962969111806223 23.406619155889075 3.263329085992411
C 4.455505094555546 18.928332449366795 3.2584107138830314
C 1.2666987331764512 20.120336625587413 4.367330172514467
C 4.1410469985451925 19.33557618206067 3.9610306781844824
C 1.46339013518126 17.815320273082932 2.9279528257290948
C 2.7152187010132414 17.051977617284493 0.7203270365531117
C 2.3667111830723786 21.429530379840145 4.108979479374793
C 3.8937156638669728 25.061663050967816 3.6818163113925784
C 0.913329904436565 26.30108913825859 3.1640750841692844
C 2.92223576095913 33.40369037975604 2.0304567389320556
C 4.53266195628279 25.46655103102276 0.6049018110839799
C 1.3553898986426083 32.16059881095816 2.268677346093648
C 0.19622101684493964 25.608504562770726 0.6967093928750356
C 0.29625696818751546 27.155546215240427 3.662072397852392
C 4.946698228347969 33.49462172175663 2.581764128194837
C 4.611880833247113 9.91638881993172 1.7189049546263435
C 2.22754813463356 10.436753615791076 2.0112539371757943
C 2.812606760845957 13.44408044089148 3.9157249368739784
C 3.5108722886082644 2.2371462099273565 2.50898027882714
C 4.445749918609321 5.0325075237773405 3.414126594777654
C 1.0127445714602108 1.9869747832461861 2.8388470411945246
C 4.252489604971842 0.7779121483184497 0.6543678723589286
C 3.8373029982350806 5.774997317144466 3.127409594825834
C 2.437312838707654 18.598701824600333 2.317917162307098
C 3.903270573874181 17.021403024218184 1.5788795507963176
C 1.9313315792307695 20.89359714873291 4.1001009419068675
C 1.6356697106506657 22.076685584847198 2.797949438108256
C 0.12743888552047 23.47354096660286 4.92421718297792
C 0.08130986486043434 16.176942333074187 0.08103944204880975
C 0.3542029095082355 20.460542808651713 1.3136175496914382
C 2.883987649098726 18.965364487121178 1.0084489660951297
C 0.6370954564385783 22.939921302293076 2.2944444610218233
C 2.657442788362498 16.3309899340519 2.733002481081134
C 2.1432160719769744 17.865709988067838 3.495647750624597
C 4.558133579561926 19.560747402944127 0.27617905824886935
C 3.943517378384408 17.46162940771689 3.617083343222877
C 1.7366902253809036 20.20668445367634 1.217680008923756
C 3.4184916028874883 21.038222163669175 3.2151716972965163
C 1.9904062653044297 17.68078033744448 2.4056744632763167
C 4.825398579489601 19.762576746929295 1.511957406713886
C 4.062676086328248 20.807842025456825 1.5401971463963409
C 0.12320590372470464 17.752487739585096 0.7447156365603352
C 1.2664418588147646 18.465824756315573 4.923565084881984
C 0.5984782708953024 18.997774020971793 0.3405829496933177
C 1.9299690900567756 20.13445655641201 1.3310926305260589
C 3.5318089069526715 23.825916191697345 2.9311408677761515
C 1.9365996747108154 20.318087004081345 1.933536736503304
C 4.341789139753146 22.432160932292057 3.805011274670866
C 4.932812369922768 20.641578287986075 3.0569219864872546
C 2.252268190238629 20.961222291072094 3.3679569073770326
C 2.6270356270516544 16.59965555421624 3.8483032459470374
C 4.6328812272266635 17.06738570508422 2.2895538703853644
C 2.0786811514731998 23.125756616245337 0.676854164725475
C 2.1265218936785186 22.35655158280465 0.07573275512707534
C 1.213258457133926 17.85888854091453 4.71432711428773
C 1.5027831348948884 17.339408742006466 2.4189766059495392
C 4.055536370463369 18.190437000614395 4.467741977051623
C 4.663691832304632 18.091283215588206 0.4058416951625926
C 2.2940317267683756 17.30858106552518 1.1450388186393572
C 4.138316109894876 22.448661021699372 2.0661066664799748
C 2.12138282983164 23.083993981838237 3.898168303973193
C 3.0852734182121293 18.771606636038598 3.060223999437483
C 1.2412893610963704 23.91906793801941 3.267901261944207
C 2.6724436541259227 23.932973353702458 0.7802458702333342
C 3.2580983145740463 16.259519656003565 4.81694687521415
C 2.4886459559567164 16.154584227827886 1.6022277982815558
C 2.035185362071731 22.90166671922188 2.0150464765764653
C 3.472073491353739 23.906070747281177 1.4308777389761296
C 4.123942161997725 19.56527167383413 4.129255925723631
C 2.1768938532055664 23.839279345510587 3.3554104322894753
C 3.2908021244768877 16.302514820921697 3.8370984420617926
C 0.5339531355386318 16.925736888444092 1.854207575102334
C 1.6514243219441043 20.577628892042046 1.2719384131176958
C 0.8515324018513526 17.187462993696464 0.5288142920773059
C 4.763133343344996 22.64175854146373 2.502328213038888
C 3.14298491885261 16.6936782013818 4.703579101721408
C 0.022386964759692485 17.281635395804855 3.88258589985297
C 0.8721810301964877 18.687157517605662 3.1003583005379616
C 0.19315137598998222 22.92983139330636 3.2735941021217005
C 3.611597143531839 17.345138193631705 0.12612387027771843
C 3.0227482077609613 18.328328130747465 2.0372012532807915
C 3.8631988473290186 16.603425587560004 4.461151275141674
C 2.8691878276779685 16.173217070752408 1.6155254915468142
C 3.0619880418413876 19.482961287481942 4.063470057084038
C 2.4372434113157757 23.1224151073415 4.386741624463186
C 2.7274474872673182 22.458585053433463 4.005203260897644
C 1.3795098727122452 20.156499531933687 2.517569754747537
C 3.86726006269924 22.29292541837719 3.8015671229574464
C 3.818152127356873 20.927909631129797 0.4997807334014942
C 3.099844155997116 18.24750354423666 3.7995961186129916
C 0.8394782002453854 20.469831152576596 1.8833115025266156
C 0.8608776574615962 17.855099359053405 1.4666914295647748
C 1.6206299174851853 19.989406943466463 3.431812435235318
C 1.1622378492309027 16.972867295831584 1.7168149665452004
C 1.210151824808462 19.285361274614225 3.529198024498641
C 4.588765268076969 16.931815900504805 1.2192167622716372
C 4.489290879642755 17.749638187550573 2.2902586346892013
C 4.194041495123106 20.65334171554956 3.9330725820148182
C 0.6631021703826806 18.015355844240002 4.440412159850739
C 2.8250910341642923 16.926210371629544 2.8826796756911377
C 1.8326833745573428 19.5685962070078 0.41917060003387796
C 0.6479261180919699 22.902511030241758 3.5122965567492996
C 1.5007122535123418 19.230171784417468 1.9340334341249172
C 4.064400413286453 23.52885165840667 2.311421733929902
C 3.434708917196927 19.985026394260558 4.566903158313947
C 1.1158482609747917 19.56226026969663 4.2984200443707214
C 3.3096546076742124 18.73054500850042 3.08591779619186
C 4.576970304866455 19.28915676057234 0.09729846803021469
C 0.6715233220753841 22.334886862503275 0.13542283659034038
C 3.9667348081398 20.513640906625128 1.9222720388062264
C 1.6191528417902683 23.06072357199494 2.275020840940048
C 0.6447336565896356 20.719414534497897 3.780040129961775
C 0.2551720668432472 20.320797234002633 3.1965815967042506
C 1.9078711159248747 17.77727366214699 3.961074434513225
C 4.513170837442982 19.59582308528994 0.6472121683227611
C 1.2884699883779231 17.560908971960238 4.45630200973859
C 1.3671423556435718 21.972888875804266 2.0613887128356287
C 2.4931076466619024 21.880982392962803 3.6288757021991587
C 1.6025512870173646 23.12455015939782 0.07351636655669402
C 4.656455239180374 21.4611128589701 0.5746889299865487
C 2.7405782155526586 21.0032473463293 3.9488942454524234
C 4.471501946703353 23.04075757839979 1.343431220345035
C 0.3841600817792934 18.240419354227242 3.083718329254407
C 0.4027784527061412 16.515397788511045 2.557062553474194
C 2.0302688267393947 21.76740187645909 3.897735366339637
C 3.22425689266703 16.575187235340643 3.1272496562599787
C 1.9920032785265533 17.45070288613554 0.15143236599618637
C 4.727518050324949 23.27842888206461 4.578516813445461
C 3.3852583598651225 17.002671257788773 3.6718107714544974
C 1.8922711188253443 16.21987135036467 2.496576859448172
C 1.0755926166776175 22.224930087315876 3.3443038868429826
C 2.74884363536283 19.94521869330843 4.233405841620898
C 3.8011229171667886 20.069436937778896 2.8751893163052333
C 2.52525207660804 21.508560024805 1.9222746665847112
C 2.7169490163473164 18.48065325840919 1.3968778198608334
C 1.1735846685173894 20.944360153711468 4.1784728530651485
C 4.884011421468312 20.04642676066992 0.3338504044940155
C 4.144887055002326 22.125347248873744 1.491154585916482
C 1.655792707862912 17.775212908020027 3.9499944397377273
C 2.851864956185384 16.180778203008458 4.548731946263283
C 1.88153919760826 22.658863753628385 2.520562938595333
C 0.31174626864774124 20.936357799966412 0.45260188934656054
C 1.7546567503030364 18.285708531564055 2.4956518519221316
C 3.093911230281919 19.299075537726583 3.4005488360871343
C 0.3443183959870294 20.385119338072506 1.497837068667807
C 4.21797380026733 20.896192831535835 1.8880427298936482
C 4.798842085644791 17.83199074761216 1.6097308649859494
C 0.9696842450936854 23.864968395413957 4.3689245187169465
C 4.622156098302489 22.440012761903464 4.384222513604153
C 4.679440837392577 18.837081230668126 0.5563315101102057
C 2.002634270527428 16.15011411521614 2.847338906937687
C 0.3046198975774955 20.848454698756246 1.7817629902387617
C 1.8944056187296465 16.120009061656123 3.276889209950557
C 0.013576087911306711 20.60899985380624 0.3262088125800927
C 1.90061595955112 18.39804699083445 3.3231184758345256
C 2.925055893952577 18.93081398914244 0.6030688797682393
C 2.901826822235397 19.12908474989777 0.3283890975436571
C 4.625191707318136 21.963852941334306 3.394836606968487
C 3.0251758193321314 19.10099440558335 0.16230566598855745
C 4.873075509659268 22.0433296931854 1.0253441448394178
C 4.44029833124803 23.62049843085748 0.484918152747838
C 1.160063185015559 18.81988431557322 3.93463605677761
C 0.6686775857190386 20.82903400337313 4.39871548002835
C 0.5478691979011158 19.768009464253176 4.343117871265023
C 3.198256996117376 16.82244292679786 4.471264013268416
C 0.7219090516408538 18.12539106983077 0.8898873213500019
C 2.3603519721560566 19.145473068501218 4.7077810500051225
C 3.3750878912746805 23.859950468078942 0.20573870981450304
C 3.413259621467227 16.631514822139447 4.859419592280309
C 2.3098493072346518 24.404200982449044 2.022143968728823
C 1.7337277047172601 36.09554021120192 0.7802007186114235
C 1.0373443758038343 25.455645790729385 1.8727645488755047
C 4.578075687439307 24.618809756957326 4.176729332219358
C 3.556401831578198 33.928075746697495 3.6395563721934403
C 1.2488195742885366 26.53160011263241 2.4737964493073523
C 2.6286868953023235 32.120598810300635 4.156408246027709
C 3.796166501015261 30.745076569862714 1.2139524437368725
