162
#
C 4.220266547575729 10.73937926541646 4.731537933450578
C 0.284377919273775 8.504357492062505 2.481737483940659
C 4.303233759886739 2.5658243417684634 0.5615790132490939
C 2.980361906359181 9.84529325000464 2.756871040032599
C 2.841136442199777 5.239113063114001 0.4897889220298074
C 1.540036400507414 11.901093809684587 0.6905270441973932
C 4.999698492511856 0.718734152338893 2.7307851122090883
C 4.438237172523618 5.173521456237614 3.7938451936236772
C 0.2238849673883403 22.77594604319099 4.673847432542427
C 4.0308804730461585 23.74816825072724 1.5072653080423382
C 4.471295727758637 17.030835362359117 3.226098989866694
C 2.57088896134652 21.157528311702723 2.2098366465882324
C 1.5044617161276108 16.634549556463757 1.3738903794224782
C 4.766654795864556 19.147338029168928 1.5662876565982047
C 1.701434291909797 19.55284297512199 2.389269190960208
C 0.03117714044825859 23.44363342327358 3.5716513215335906
C 1.768071063493225 20.717157002203443 4.497751362084184
C 3.0198999598773044 20.142270053087863 4.334441341064182
C 4.069444522685969 21.516242857691424 2.3038682829805173
C 4.810542676422458 20.44364654949438 2.1000005681004366
C 4.0390579847127634 21.543270279177513 0.008739937750830706
C 1.2728588636557796 18.137562481615095 1.7863910482926249
C 4.5527872801672595 21.502973542981742 4.86432435004456
C 3.1556763613161367 20.81855296162658 3.3434523848538116
C 1.5001478172729532 16.407921067954668 3.6811613193793753
C 4.533127576586634 19.30633548475312 0.12515853405864807
C 3.606606082458584 17.632556049417616 2.694725516464004
C 0.7161243246042964 16.155466300845568 2.657604705043438
C 1.6295486289694554 16.66285084091995 2.7135978551758013
C 2.577655485622804 21.605136028852336 0.7389078671715282
C 4.5657440672849345 20.588778086725107 4.1192486533997466
C 1.7784848468748327 18.044489216447417 0.7789608506732432
C 0.6103133536269595 20.519402804237046 1.6250009914131263
C 2.70898744425879 22.960900443575376 0.9994062337422682
C 2.4622425935180625 16.859459276062495 1.7094147045556234
C 0.8125211888282358 22.80041127018726 0.1964498746631138
C 4.882649838915773 18.61726622175341 0.8922882392576725
C 0.6502445016385228 20.23599534125625 3.9640054970282486
C 4.656198482098281 21.212884835285895 2.8641523482929716
C 3.455540273564075 19.666408338401848 0.32311106738256434
C 1.8859713005629464 19.772721121296815 2.400650290066222
C 0.7405206205464343 22.273421672303417 4.818033423948289
C 1.854727635225717 18.009468568775226 2.437548282246984
C 3.49537030137592 17.134652433533297 4.216111588266555
C 1.5460589016990856 22.553623440069586 4.463845614194398
C 2.759040525358807 21.151617847159535 4.9843507736340396
C 0.5714970059665797 20.80305692754935 2.416600159777035
C 4.528690014823928 16.354173406610432 4.165468504827991
C 4.8380804689865595 17.10005994861958 2.082019446320423
C 4.3150379013711 16.583790563058503 0.047916501008087864
C 2.138139448025831 20.26399777430047 0.8778040471094672
C 1.3535127160680211 18.38418401123893 1.400296264422836
C 1.5097404038710105 17.001853770900155 4.270941355918842
C 0.5512910346803401 16.055581148921323 4.3377562073707026
C 0.49916182823456834 22.479941144638104 0.47014521124414954
C 3.2252690416515515 16.84769578172726 4.539144997150594
C 4.8896351004623195 17.356302489084126 0.6705359203016853
C 2.9686036683450734 22.177889500674162 3.0935684549070297
C 4.337881907825324 17.408699076066405 1.9270314499410062
C 4.03342071024131 17.709022448951874 3.884459813717407
C 1.8438605042577323 16.829318394282797 1.9042038540645172
C 3.4194564366261964 23.622876339108462 1.915858554754248
C 0.40950680887188007 21.549604619188536 0.7299164229713001
C 0.4041845392742405 20.0072391850586 3.7361837233944395
C 2.2068249287481323 20.55147698982049 1.5686895629418085
C 4.345101762335219 20.117735117281775 0.24643362693163806
C 0.5737593748560021 19.332104029998057 0.4533078527003054
C 2.379257115720934 23.19527275367943 0.10637763869664807
C 4.2247205419159455 18.753450846724846 1.992542078743521
C 4.7929764487103235 22.918169538617157 4.491580047541769
C 2.5825057109422622 17.582959610980286 0.38506857493875835
C 0.40697112093596 23.092531161416414 0.28459309025687995
C 3.120070172117359 23.24663399579359 2.33958733419601
C 3.7623118157074757 20.379091563223035 3.61148728071361
C 0.711596598496998 18.19035203453906 4.799665723069336
C 0.4500450283751328 17.804998618995114 1.6023131473375674
C 0.8143990571746645 22.271816572289396 3.378225520812
C 1.289867888448446 22.554292558977078 1.8843095536613375
C 1.2546811159973748 16.915977907508967 1.8358539958326014
C 4.300118956725231 22.51178803963029 4.359015260924927
C 1.7287008996267372 19.756193185194824 2.6417803951321694
C 0.4638404938247892 16.826591878016142 2.607852685152797
C 3.37702224445891 23.869616192415656 2.322553676716402
C 0.8871850291180328 21.177331943689985 4.764779346737428
C 0.4289892191207684 23.093727715099707 0.5274719579296366
C 3.4684292590370767 16.07385795770072 1.6769363460146685
C 2.9690677070682643 20.360185925839772 1.0708521426860718
C 4.179867223590625 19.412958415588474 2.5474393714270644
C 0.6153902336641615 23.26613432379373 1.0439923105519573
C 0.6116777933189799 23.433515743211476 4.969192072587625
C 2.487904237720681 20.301068883559882 4.741724553694871
C 4.304567944033645 17.226112339502894 4.906085578693797
C 0.5653829729959869 23.778743789152863 4.679847906359944
C 1.5593550757522219 21.905515957300317 0.7068984768393544
C 1.6333598350285756 20.049490860966998 3.5145073703533876
C 3.367246794140315 23.630395489065723 0.43524766632879075
C 3.7825938029174218 20.49926576120352 4.825422502104103
C 2.302759583147407 17.400099111832326 3.7444124789880515
C 3.710142096457629 17.552407288993432 1.3025374900576303
C 1.2259358686175386 21.754351574540213 1.7174353273332954
C 4.730596788810967 17.21581991701123 1.6974777617958807
C 1.4054950004218858 18.465508384566466 1.2198658061604595
C 4.020001476947897 20.046842662310965 0.7588474365940262
C 2.9445311883906653 23.21729620506933 3.656671017080005
C 1.2552154171037488 18.928055104125804 4.941253348627047
C 2.521423403975418 19.664870690525497 1.242550950219421
C 1.404828819333816 19.107811249909382 3.875750372851477
C 4.382230587793961 23.08519983815513 1.9358800374427698
C 3.8842048567674805 18.81704739490407 2.5258881404107916
C 1.155625473743238 20.67029082906561 4.312356271359354
C 0.322915031214262 19.787994361700832 3.8938979378882426
C 0.5104896375645168 20.697163862337945 1.007091877947905
C 1.9491625736481462 20.79083440156012 2.239040859853233
C 0.6208407810256472 23.443882794200384 3.9809557215244853
C 0.09440760964380401 19.1062600836246 2.3755305872824932
C 3.5637943396149954 22.89049093018114 4.421398793022086
C 0.8602524807155415 19.089523796179414 2.2589896331538855
C 4.812425891070476 20.732170362800225 2.532374996479414
C 1.001741483033668 20.949528034224095 1.6942942444947091
C 0.6173076500495123 23.39795787487346 3.1452898850805626
C 1.9938991816350597 16.432828243132228 2.5503015522777894
C 2.180959212319032 23.024449185791003 2.3929604187163895
C 1.301410859862831 18.135531674288448 2.277041467723096
C 3.284864334912947 18.975697838947173 2.1001441434485435
C 0.7994042402722595 20.714438716707885 3.6474672811600586
C 1.937058672440194 19.45741055391778 0.7331150537859976
C 3.809608308174788 19.56276619611254 2.7893677695337793
C 2.695189825774467 20.278064386603802 4.513925845100463
C 4.515980915355584 22.189550603675656 4.902271940521063
C 3.4293455650871256 23.025928961228075 1.5778910814979752
C 0.2812152218172226 16.042103730660195 0.2089848124537963
C 4.946377622214577 18.550755810839497 4.830043757640332
C 0.35314684808375685 21.322322747966577 4.021200755142985
C 3.449386871286259 22.630389709880944 0.5235183424094808
C 3.2106465839673275 19.379238925543348 4.301612555080348
C 1.4280121257409795 18.913248300875644 3.9842672950447184
C 0.19951921010758378 23.660818602406895 3.231159895830389
C 0.024364168921946483 23.764062022767817 3.7054296639505995
C 3.928526531641012 20.772790687512522 4.464230749139837
C 3.1755870022697708 21.790536551027223 4.1836191320932254
C 3.78452356145007 18.701380481858603 2.3793177570553676
C 0.5373207845719102 18.43086938622739 4.195588980004091
C 1.7131913259309268 16.00392980772389 0.9282969860132495
C 4.399923534406302 23.73136148292276 1.7223144628586995
C 1.643601224034403 16.762004532134007 0.6556896078924412
C 4.8914139252748425 22.61646728719974 0.639330093775789
C 1.3923972545268493 19.02951914422802 2.326816376908884
C 2.715047927843652 16.92207338939429 2.5896101007246712
C 0.410479536588107 16.50526759457639 0.10066171103936317
C 1.0551856942215458 23.556233651854594 1.8047857252386486
C 0.4620114129972097 19.432581086762163 1.2545283819151725
C 4.0141027912243 18.35590548782718 0.2624472421786045
C 1.8045227686602616 20.776112331935426 3.3598861585005158
C 1.7127731380425621 23.996722802865758 1.5120603722909798
C 2.1663663571640557 38.90125601110215 2.655374039881079
C 2.7075138966397394 29.76407890525158 0.4056434224181066
C 2.3340483587956213 31.63866198086215 2.9668625291150907
C 1.1390776605329023 36.538404162040834 0.3186908744727984
C 3.0497874528127267 24.386339464566525 3.7912616401049544
C 4.501876747603201 36.84120731626136 2.873238825777828
C 1.5825766519214253 35.80484433085734 4.679897804022084
C 3.416404765482483 29.10568947497806 2.8879816022583285
