162
#
C 1.268433078807265 3.496934059843827 0.23004869908359482
C 0.01777682155219007 12.664872662295227 1.661016926334048
C 1.0592852233787338 15.24225023610212 4.079607765481975
C 3.4002769511535713 4.0095240509397065 3.9970479283991445
C 4.691229712804744 11.955030060788545 2.7665586144069128
C 4.04000023613373 12.66543522012069 0.3764629348253534
C 3.4623344130627793 9.065449991756877 2.9717760203728534
C 0.6368222083411285 11.907582955023992 0.29861895905992364
C 3.4239434056106703 22.277012647201044 2.837890113680335
C 4.21410046315959 18.035022420301647 0.7134455447650712
C 4.820183571530231 19.87064781199321 2.334558346406646
C 3.208292342698738 19.9998125044814 1.8037342282357631
C 1.7785136803016677 23.317694264590823 0.9092450985102501
C 1.4096862468569171 19.73508203449077 1.65258088863611
C 1.4029008482876926 23.93304943290888 2.554617847292013
C 2.8831068524690497 23.275695140814243 4.622592661451595
C 1.794851596356764 20.275491088193363 3.7977350167601793
C 0.010929531830228822 18.29839610927698 1.1279520784398267
C 1.2384215185080438 17.963495970743846 3.839634761270606
C 2.21050053731028 22.73884489524881 3.674537163871033
C 3.7300394881850965 20.394082978669502 4.969203994965778
C 3.3488563203109796 20.103196580922592 0.6418364078960126
C 3.618775055403334 17.169704400158516 1.7949823544800387
C 3.9453487539494962 21.303764328703476 3.183201642858608
C 3.0843488207387533 18.721893084836793 1.7740252129973721
C 2.4316365452200746 16.005398505874663 3.925867726701739
C 2.20081959506195 17.149494341317727 1.2565609025396447
C 1.3596961606125502 16.729814305872914 4.981932526227447
C 1.5090097141432541 20.94287651870206 2.88320162982937
C 4.201297963673827 22.51568725814655 2.6239617409176446
C 2.125361720002667 22.49682978945942 3.6087772489939933
C 1.868047351515273 16.579285857397085 2.3348063651051785
C 3.442028573936557 17.41659453309015 0.4256206101329635
C 4.59619256252627 21.535699247422095 3.464927048622629
C 2.1721215592421954 17.57404043088367 0.5403746096346612
C 1.1813928327020125 20.619408331610522 3.8563159625101644
C 3.6842871312087055 19.95875636803587 3.501963348394286
C 0.1846738682869925 23.563261474346092 4.558448882011508
C 2.5128199645824303 16.68182797016038 4.1982443521587385
C 3.583571735770972 16.226342341126614 4.042112604666917
C 1.5702582723535135 23.266493431394533 0.40454196860508496
C 0.7970507477988198 16.84318978435281 1.7023830309265409
C 0.6064932997297129 22.850884456001033 1.5710095531023704
C 1.0826506260482915 23.837471409769673 4.684123090085126
C 1.5742952517976894 20.094012313966697 1.9480556316034603
C 3.0048582116741205 20.66991508241232 3.4975890388022712
C 1.3851824988274652 18.44554291659669 4.797332936382634
C 4.111981568821036 19.823948082748892 2.7102101337547397
C 0.5030111820284544 21.901955495999495 4.3719153938641995
C 2.840197368125871 21.224999779681777 3.995181104148742
C 4.475355199476971 16.807866938875385 4.201537724527633
C 1.6406150619536657 22.977672009038674 3.6157642502323895
C 3.578280319725746 21.11945000714767 4.746744140920496
C 4.602512621663108 19.85314667078891 2.6369050455207157
C 2.45729404259352 18.39939775319368 1.7040171307585539
C 0.9656700284320929 23.069515368768894 3.107994192401648
C 2.474441088898778 23.20546747773412 3.2490395964947885
C 3.5139522238269674 17.05285243907637 3.121846451410719
C 3.570012295889638 16.647504776183293 0.7449569849186011
C 4.3193802279868105 23.38391276810498 4.036199023934073
C 3.606396497446619 19.992093228685743 1.035119424659342
C 1.0166635305590033 23.947740604616506 1.9979826275986656
C 3.2358832427368673 19.4302339104695 0.4058138133906175
C 2.1386245568635176 17.404334035277696 4.518618451091289
C 4.492656654283515 16.341587971771183 2.776508453426378
C 0.6721929784785102 18.45581022743863 4.189504139545629
C 3.283299981241747 22.250556269483468 0.5675307178434907
C 1.0985739122598877 19.016542599308085 1.8223786791467527
C 1.4743693158443238 23.802722536345716 3.1767091295572243
C 2.4246608510470233 19.716491623038767 2.933323641667286
C 0.6729278587367599 22.63285495614832 4.689974376504508
C 2.03369299484466 16.496200412394753 3.134990467984387
C 4.67661059868932 23.23354591792625 4.832761063119012
C 1.7212318606694887 19.730991192422096 1.69590952097879
C 4.179804426458955 21.682714755863497 1.7679048069063978
C 0.9088918904431376 16.55868458954572 0.9960053878407943
C 2.690606397688346 17.518644159172652 1.7860760615255855
C 0.13459295509177627 16.31673432608224 3.6487470782798015
C 2.8069687931990526 19.082378427192356 2.325927961312209
C 3.8605868581570872 17.893693032192076 0.20249392953321121
C 1.0086388715731454 16.319707381627033 3.471685979470789
C 2.4796626739680456 20.43794224667198 3.4254396281981343
C 3.039878181944415 23.697923516555125 0.052356214871361884
C 3.1852806220484724 23.2756671603647 2.7408889164068317
C 3.1354441207912904 18.747061432546225 4.436272510936934
C 3.878463842731796 18.39524525886725 0.12073234949159406
C 3.122347040460971 22.160117151514896 2.6286498583112343
C 1.1366629313071497 22.85846230240792 3.402838432978101
C 1.9167530633371572 19.3572498602785 0.5166241129591725
C 2.5917591072799566 18.87267504900092 4.9177128751646695
C 3.0085181965837924 22.067661855916143 0.22579795642269196
C 2.8948289145624466 16.751542177977647 2.869302122174067
C 3.5757329998967133 17.295742813410605 4.91155953435901
C 2.2699593050366103 21.567809473597116 0.5726584630147158
C 4.53547195292743 21.373953143024448 1.4804075994003614
C 3.64682836814121 18.221091093835746 2.0608959816142782
C 3.288698166341082 23.313902747260713 1.1836368391153589
C 3.9886913463602935 17.155867154986936 0.9015545549831921
C 3.70987731477092 18.659577229208125 3.629325674981632
C 4.163515487631529 20.253297406029073 2.626859703976879
C 4.7703074901683475 16.275489208141 1.598348967267416
C 1.5715620296470538 19.830007617426848 1.8403237816659412
C 1.0670438828448954 18.907137873439062 0.3282925666365888
C 4.490002430084096 22.368926723212173 2.644874612387627
C 2.938600620881365 23.561966682397994 0.3031593362659407
C 4.490857831305762 21.165627541413464 0.11435867851914028
C 0.20086022407638016 23.218561714881545 4.357208500448912
C 0.05610325451241627 17.505909396079616 0.19101805350505818
C 0.716003125457712 23.253444123900245 1.1617578181855355
C 1.5202234643787178 19.856365207516067 3.74115559006017
C 0.9945161928700258 19.251411857293895 2.3076165273102704
C 3.9548823247464227 17.559018140760642 3.4408466893994207
C 3.0228646495424476 17.91141893310089 1.433180252012598
C 4.543865995890157 21.732093384080258 4.168280395581229
C 3.6063633372744897 17.213783480753275 2.676687968468807
C 2.342781765401696 16.938913746317578 3.3337949365043738
C 1.0579929060924602 17.40315492074938 1.0120067975590379
C 4.409848779566961 20.75259736958948 3.765871039670403
C 0.15291364640482197 16.44860622209523 1.4746953239639522
C 1.31483679885172 19.925442701554214 3.0478719048561813
C 0.31740223671482715 20.262548660935106 0.7971969112998706
C 2.350644846102894 16.900142176993754 2.5180810867897114
C 2.139092284045667 23.51335713571188 2.5026893689194427
C 2.493080642727341 21.305539817887333 1.7762551348521622
C 1.3806474676201985 16.49326678969102 4.600377520899922
C 1.520300717685303 17.700700496383995 1.156864787554634
C 2.305535280647466 21.459493018268972 1.1232053922425012
C 1.1512523297333277 22.641158820758374 2.722753574481266
C 0.10514423517998306 23.13443781583102 0.6894387754717846
C 4.961847951748848 22.253899260227733 4.894309981424882
C 2.3576850461805687 23.48740068049563 3.186384906525841
C 4.651759422478247 21.033513089142193 3.084231536551136
C 2.0847645329727618 20.899518523141726 2.389987051414205
C 2.778118943182179 19.475028486892008 0.9167584954912167
C 2.0915807927204555 23.61810018034975 3.192654844649158
C 3.5032579877928534 21.75460446058534 4.653576298223912
C 1.8001488429284103 16.815895215412603 4.4621301458959595
C 0.37830586034605485 17.710197094976902 0.6935767570012774
C 1.6572903530142835 20.266899517394947 1.8035871244614898
C 0.9933563204417506 18.695504199471106 2.442913640664448
C 4.7317772586033175 17.945647653695087 2.972687730956568
C 4.482266464772298 23.731196040977597 4.980955777038432
C 3.0709962584757684 21.622545631855612 2.527216699355577
C 2.885664165289379 18.444219160391576 2.8960515912413056
C 1.5759298115127414 19.335791104281427 2.3804687736344348
C 4.37303233014952 19.253281700387525 0.9670109967820423
C 3.3742145148743106 18.056751047298476 1.0400357909093567
C 3.2047334897550606 18.01840747795503 0.6758371953566306
C 4.73095951432897 16.92819515499062 3.84722589145084
C 3.6345434314116276 23.936671544891723 1.1677825012755583
C 0.1982795997909126 20.667808513277752 2.0424203497197153
C 0.22112687726595304 18.075372722270195 3.8350977288886456
C 0.6884171846336312 18.62586508874665 1.9391081872403397
C 4.967280341451508 21.529861153066395 4.471223960130962
C 0.8311205167246155 24.578556369492695 0.25156153351809984
C 4.332216995412335 39.10343448249992 0.6249306935799037
C 0.1825486216759853 27.684109457566127 2.5437160891367094
C 0.5422279268460761 30.01518581317984 0.9200874452405022
C 4.171887689966551 24.833802933322787 2.7866877961212073
C 4.879976236140685 31.548123303419345 3.8606242680085954
C 2.320281335917395 24.279216626745594 2.35850139560974
C 1.6611544370011426 24.55682179987784 1.9138389838310625
