15
#
C 2.631217356919514 4.851736749353428 2.620818355095248
C 1.3870764022425677 5.962863734417189 0.2782517070135475
C 2.7259897334316783 5.463838743254609 0.34849755511029157
C 0.26277959111605653 6.455012052433151 1.2210330964093927
C 2.0737016360886664 5.645898082319279 2.288316732409582
C 2.582557308077451 5.15840660934668 0.7458921353474296
C 1.8830409995353214 6.163485307454172 0.39533314852477885
C 2.154380588012683 5.5473066374764555 0.08572462225582678
C 0.7737136803440273 6.730873828372792 2.9438818271435556
C 1.2418680933297974 5.541923146069124 0.012939053300192627
C 2.4089212244149483 5.214796365838076 1.7011622128479083
C 2.978657345620862 5.4057856781446665 0.5702958901808068
C 0.5363133009862963 6.773126732613249 1.4370954021116076
C 0.45504848968623446 4.891702597618095 2.2340839851450105
C 2.9695867183149876 7.078883999081758 2.2304607178694544
