15
#
C 0.6499952514871807 5.8807728526612255 0.09974338362233859
C 2.692080109323884 4.890488029609738 2.5347531756839192
C 2.4876321856265675 6.025594746864236 1.746263232282846
C 0.4853172565717284 5.641325355412985 2.9983905822781187
C 1.2680308778219629 6.186648673688525 0.194321041460792
C 2.978317620414686 4.840459506273491 0.5020897289870728
C 0.40783051702952977 6.616656377620153 0.42411041039863906
C 0.1916896461383505 6.3225833147648585 2.6512681841046586
C 0.22718825497565254 5.343846043679405 0.918812620618107
C 0.44440366967002154 6.136544059769592 1.6019910180898869
C 1.4166037567252352 5.302550058556823 1.7356162748145798
C 0.497912569180771 6.518746148520367 2.233939579739139
C 0.25789975777567664 5.247093263322007 0.1352574409887053
C 0.43086084923273404 6.583882404436479 0.9823796541542319
C 2.2747126071004993 6.196867599775687 1.3235023859981219
