162
#
C 4.697894003937716 7.091377928783663 0.33817847045517435
C 0.05341455660410055 0.08910885264233848 4.684405951798332
C 2.021622046399971 6.371445017746344 1.8391613573517733
C 0.681825981837631 14.076250020886322 0.14369373178781897
C 4.646347353639494 2.903998004388619 0.8593120128269061
C 1.1870066687613146 13.12749126317342 1.778022023424532
C 2.3601178265832328 7.595135735482133 4.610177465594784
C 0.048924884505902044 1.7308942544527408 4.516324239828934
C 3.8760331794354395 17.98938856130482 2.138280690202449
C 1.3534241986378142 22.610410049951987 0.19461539472767408
C 0.1534200601965463 21.819460198039586 3.736773005655704
C 2.770512744327367 21.694229961094244 1.045891752333314
C 3.0998876927795753 18.12593934769221 1.3283862990618607
C 4.169850726771847 17.518241249277942 4.839937986796029
C 0.49922242658152705 16.48012140343196 0.21044979405663855
C 3.555714217739991 18.529357389457545 1.4015819524841155
C 0.9197755832932264 18.65966358081687 3.873722134485627
C 0.19204837291261934 23.533051508693248 4.349577467518703
C 1.1450229105785863 21.032313521626527 1.3683627491168022
C 3.990056351652676 19.815755074648123 3.0913213593368067
C 0.8879558963996625 19.68532339950082 0.5449839301515574
C 3.2494034972199493 16.470543133471626 2.123616353182986
C 0.46028443754131565 17.9664719588579 2.161922280167807
C 4.431631251352605 18.052794419898824 0.17330243478892615
C 3.491906272181863 21.4301876982155 0.9301509409445663
C 1.3605919460212124 20.983047785669847 0.37937250902438824
C 4.197422936487478 18.853267451219377 1.5510309873879953
C 3.706201203576093 19.747613076313126 2.038606450741824
C 4.0746705853291125 17.638071215115946 3.009839867032138
C 4.175777716949689 23.682673424688296 1.2855865957636174
C 4.665490787504875 20.498646718847386 3.7934909527961502
C 2.748745815539366 23.004670070882696 2.037212832171267
C 0.6979503975247514 23.830943530552695 4.2607559169570495
C 4.541722285359555 19.043183211761303 4.4569383398799065
C 1.3907405144228324 18.15682131101933 0.5016487739766851
C 1.789049417157107 16.42186113621252 3.8386799882556515
C 3.9591432185558046 18.757148367576626 0.23353810651067064
C 4.199836216583712 19.716467439450994 3.3504796266050403
C 0.5415435100295773 23.85940091430465 3.5619735070049696
C 1.691052703002458 20.94509125561347 3.8646687854731008
C 2.3064557343237837 19.87145200991253 0.3558529334767563
C 4.057703343601082 21.15897585307073 2.00156082956498
C 3.4826788457802227 22.445002293239767 4.369223035166915
C 3.37231893647484 19.381427564612224 0.03022943904059383
C 3.475384602759361 20.05487430503777 2.727585421808536
C 4.100672514392457 17.255177984278056 1.5387926180939822
C 1.4728878960034604 17.37986753243934 0.08442168700931063
C 2.015320173216068 18.011614778309422 4.872602831969525
C 2.217851353451332 22.347069139796474 1.8969386165899422
C 4.65440256635496 23.003459192413903 3.589654396172137
C 2.156467899574892 20.10988907589682 0.43497157966254585
C 2.0251574641466807 19.402516907645342 3.278010779195521
C 3.6609012082943693 20.39769117453978 1.3863713441282681
C 2.617445822878916 18.225061090771042 0.8385634409906051
C 3.5035021764525327 18.615193725262536 0.19619214135349727
C 2.845459117892981 22.87569510388615 0.42542417559249424
C 1.8653293889242533 22.453192115394646 3.161841305286748
C 1.9578307984449599 18.45624888104251 3.7324737790572575
C 1.4684817015695835 17.472045354709458 0.7577734866741043
C 4.606559648378257 21.240437237269642 1.753547491830576
C 2.9175001455212612 22.138730650506897 0.2596024654182405
C 4.65238989509632 22.231302421927662 1.2269705293226318
C 1.9688796581554824 20.334966443845598 4.661874521777224
C 4.170946892518001 23.631970025458102 2.9869976060807173
C 0.023350641289958673 17.54212956937387 0.9467043331716696
C 3.826922689432232 17.670308109007536 2.9729597528860223
C 4.131104488060648 23.238481662111553 0.4448602401925711
C 0.8678703108400454 17.408570809106312 1.7644736977478686
C 2.9740604269700555 23.15136934022361 1.4783106535866475
C 4.067032445346984 23.78599484053884 2.2352794325769354
C 4.678312815902192 20.327819276435942 0.14562398714082214
C 1.3538124613932974 23.597636086047004 0.47479395855318796
C 0.2475809201485385 23.540399859185136 1.4107447372873567
C 4.899513294836045 22.436099129972668 1.9299342838383264
C 1.5508478156139138 19.740111144486157 2.3887681113744446
C 4.6914671936756465 19.207801161653293 1.4291366538365013
C 4.654004315972021 19.090951596135323 2.8598966649773576
C 4.209912362034688 17.446615548710483 2.02239498733703
C 4.140376233413495 16.824862508110517 4.970375478448574
C 0.09956097342221026 22.251651985008692 0.019735345045222563
C 2.2404853776737577 21.62842112534004 0.8284752054560129
C 1.4506062454629913 19.292992046003043 1.91711421113815
C 4.077365184898866 20.159463377298053 4.79593663656826
C 3.2253011311617206 19.880099648256987 4.038710546580159
C 0.08095074960590254 19.19636363408712 4.626989818199899
C 2.107754561300853 19.91923201280757 1.1570091239528217
C 3.4790627413321866 17.214071270188693 3.5518085709216813
C 4.727145874819029 20.744824577214317 4.4530232243420045
C 0.6665099468373059 19.908817747457896 3.3824699674238365
C 0.43259042786258195 16.355074743492846 1.9952920406163859
C 2.5143985612129907 17.317651229622545 2.2907603603474325
C 3.0433799169890934 22.845408067269815 2.96279996209883
C 0.949054027153704 23.51254596041173 0.6855509395433579
C 4.739622767710955 21.738797222573627 4.227161837439607
C 0.4337578473243847 20.53408889382964 3.044464599844743
C 4.8330830053086515 16.240862675599722 1.8207039324289365
C 4.0362685346502865 23.354348103909913 4.838724208267956
C 1.8773691089188311 17.267849501153286 2.0428010912066346
C 3.8802899313657435 23.344436516354357 0.48583558062511245
C 1.5001309800060447 20.06531371259755 0.8878836883083352
C 2.1396615940774404 23.571362925988318 0.05098965576579739
C 3.7813504584120627 23.63017647594067 0.2936936009768182
C 4.440055081956759 22.238377050996537 0.7662178521190954
C 4.120347756820773 23.98609100220761 4.9373323331788175
C 2.0759068608739284 21.86333569458773 0.8184924517501291
C 2.73339512671889 17.18935311243208 4.019028469147897
C 4.5817554650329875 21.07559123242092 0.6869256542064328
C 0.30702189969551597 23.425893470626225 2.1621230627229586
C 3.085725512310308 16.97453048723122 2.28620135558944
C 3.537076163297529 20.1347247474459 4.888927901078059
C 3.27541210363123 19.67678209986401 2.2663292599172187
C 2.2359717704152056 17.06574449675375 3.132043835847359
C 2.795806142059844 21.35380117923926 0.24690708807468542
C 1.0306890891532676 20.1515814300623 2.4088110559296876
C 3.7013544222160766 17.117178936294632 1.0340531327617475
C 3.8881123534548316 23.252877812119657 3.34120299917109
C 1.5546832634467416 23.629976512019944 1.0525300247868614
C 0.007335044283068304 17.24958057883706 4.414563463316695
C 2.285900054322059 21.99815651849718 1.6695035086205767
C 1.4729690619997993 22.985003117628377 1.6380757149712473
C 1.5160462453871353 18.304170480250022 4.339120188826445
C 3.9483223883556704 20.617307779521795 4.464123692205494
C 0.12562809391963803 22.248006385891717 3.9027533690772205
C 2.6197215292871077 19.19034373923358 0.2243714905492089
C 2.4757026324662683 21.382890205119015 3.59967033117146
C 1.8179911772480035 22.954773410749723 2.8746966229444
C 4.897279656464533 17.696616041520354 3.5102351342442963
C 2.5725044860732247 19.837117865214474 3.0323014294306736
C 1.5240875605715842 21.542172445425496 1.5806720476929677
C 2.6841371110546035 21.749766778429795 2.9657555394855892
C 4.839387509038379 17.5215179378627 4.809190893977994
C 3.482649408598144 20.967232533572687 4.9796625051674805
C 3.171931252386859 22.142001353797188 4.426272524777299
C 2.930717406110193 20.74181246087518 1.158284759520765
C 4.8603172162400545 17.85679978710192 1.5822685823215092
C 4.755778265125249 19.869174538208426 0.9673356584162751
C 1.68764359930196 21.836529829311615 2.4814315408432197
C 4.779789857015721 18.795971021314845 1.9509479534417968
C 1.7489223199995907 21.6226488972029 0.7179516500497946
C 2.358582381074327 18.92923410153269 4.936253714936232
C 1.9594297013844524 16.939114813369184 4.431175041348173
C 0.8588981838861198 22.319463125017016 2.4845660959025113
C 2.9373966032072025 18.420335336128662 3.2800709231591405
C 2.298789820339083 19.616265316197477 4.132638590229892
C 4.493430875711985 16.039631681413454 1.1858443115001345
C 4.178586848978364 18.703900567524236 1.6526796714484577
C 0.4893289057907446 22.637582521890504 3.1062162783999696
C 3.0642920572086756 18.174582011242332 2.1800633099810893
C 2.750599723675344 21.899186381047954 1.8634424385368131
C 3.172479311262416 16.790792991492495 4.19765676200834
C 0.9957176709722482 17.81176437284581 4.586831433394223
C 3.1644404217230404 20.903036929253876 3.9561332259730007
C 4.263367502454514 20.259407686184026 2.940358808193884
C 1.2940471508161966 16.313984652235494 2.411970915889489
C 3.2518366750475183 37.59008067806921 0.32047302897254604
C 4.291631379610319 33.84825539092678 2.707871743696572
C 3.5044898254930175 33.36354622171443 0.2623116243157503
C 2.8908640743350524 32.344944602309134 0.8287177152616271
C 4.181593892038656 33.5575930476331 4.466633040747493
C 3.5852731796335897 28.8200553387114 1.8598354970450766
C 4.572097453655218 36.330837873973934 0.5410152713531924
C 3.778556533704136 28.259572559031078 0.26264425970088157
