162
#
C 1.4854258524889252 13.567414922814164 0.36812707415960155
C 2.099198826190719 5.453056754142667 3.8031775782586417
C 2.0628657773561083 13.757862510950096 2.584952410014062
C 1.0597809813845716 5.934893720170168 0.2047592091679079
C 1.4907054207701504 13.355052910966597 4.58990897004134
C 2.169140991566905 6.399356463974762 0.7622002525926358
C 3.6637330355528235 4.729078373151653 0.14421566794263263
C 3.3309963621250565 15.453043154391427 3.504060113201905
C 1.78773799192324 16.856523692562895 3.116134458564539
C 2.841367625330112 16.371270880264095 2.7816245745461607
C 4.5398558080280225 17.5573991057983 1.843346072261704
C 1.401600884044526 17.87820773560149 2.0784996245287637
C 2.137888104140843 17.117542203197836 3.165053641871893
C 1.9777488882760013 19.257208526734036 4.497193341926187
C 1.0689828433307613 18.165754476839453 2.8590938206371543
C 1.7742740083038944 19.94812940262132 0.8706675339387882
C 2.089503522987502 23.18305315048844 2.6181266088531787
C 4.264325418618636 23.030732591535955 2.9623972667311045
C 0.23056854018542017 21.4567381820697 3.626542432072445
C 2.924589087508733 23.664783074359413 1.8999988032564668
C 3.242449559689261 19.500370246730853 0.48674101567253214
C 1.4986551051283592 18.486033588256735 4.042765861444207
C 3.4193632659793893 23.229473448955098 3.1918603439500046
C 1.7820152195858963 18.159655349820554 2.303736082665213
C 3.625794860442992 17.126911251717278 2.596666026769366
C 3.4428342998867563 17.931384348931417 3.9917184102082293
C 4.743051400231897 19.636095764766694 2.8161688671322036
C 1.294719318564594 23.465602524878076 2.251525009748383
C 3.774629371032843 21.207360012183052 0.9956589701711288
C 3.7348365503908276 17.694576298023954 0.5319369189631801
C 0.7436011861786579 19.176032878934134 1.7969582707972016
C 3.1728410596364665 19.42828739674075 4.0365063766949145
C 0.5931809532561583 20.47209480965094 3.1590850569027094
C 4.278483714641979 20.75969268174108 4.723907600993214
C 0.7311441829157594 16.85008075507568 4.445063597726554
C 3.188376433676685 19.89371629514797 2.0589847482817465
C 4.074745516299144 22.849904239655007 0.5760032700837953
C 3.004235911387531 22.752955140519024 2.0739595330768172
C 1.9537516631869174 20.882877764704748 2.1031571454790168
C 3.6652243797354833 16.47278643554202 3.73848928014511
C 2.1905110396659655 17.17761138090858 3.93735261869107
C 0.9939360474978098 22.22040636809234 2.3799976469723743
C 0.5267147731291916 22.29300080789379 2.886362137550344
C 0.3332610934423885 16.185499943254335 1.0329746835142994
C 3.991543834147425 20.56778791723763 2.989345158137851
C 4.495167332473711 20.479160439470295 0.5212584951830285
C 1.0212889509551215 21.810008303510756 1.4541131315215805
C 4.028128722263046 23.3947004658419 4.383147268719049
C 0.22342004604786025 18.52956003741436 0.17910830211084694
C 4.070076873354881 22.82805810258304 2.557183408702313
C 3.9375798140410545 21.941329470451944 3.3492611793797398
C 3.8460049583105422 18.865000017855422 2.665410840543787
C 1.6141016614633648 19.56991824929476 3.993413780722941
C 4.814791247941669 16.563156080560315 1.9915430749137708
C 1.6462153961416366 21.472323826167056 4.160538209644502
C 2.3104347015030404 20.55804709588574 4.030906431698339
C 1.816747850266605 20.831012745300356 0.7088246967325279
C 2.0709122767402475 22.82357115799412 4.015975843926466
C 3.208104153131284 23.737019621680442 0.8535311036755083
C 4.071513005592747 18.839997796908513 0.27547340794603137
C 2.662521724924326 18.449134606506 2.046404013103127
C 2.343150435901226 17.630872936782755 1.4103053332017645
C 0.07742412372516161 16.217683815523195 4.706596502512992
C 2.2050159143733783 22.283757962327165 0.10959982050239347
C 1.4672863374713634 16.650777598053065 1.6087712860943215
C 0.0883045715393721 18.51150359085133 3.85309105297845
C 1.123086340477355 17.152186293733156 4.384141626676914
C 4.550954814159901 22.258263496909652 4.78621787273319
C 3.036599914348076 18.465397257596695 2.3575009241151523
C 1.5962869653169238 22.316281016217367 3.160774041225491
C 3.5303668798027967 22.75725191124757 4.243122979832384
C 0.38702616363058495 20.101211093192177 1.2758504310166714
C 4.63467956561423 20.008865015562648 1.676920857418508
C 1.2503833293106688 18.29306493948333 0.10945286481102157
C 3.209637259185041 16.60892263017559 3.1125319396026594
C 1.8751359777662324 18.771962154437787 0.7793036724127639
C 0.9562740992899288 23.176716985232577 0.8252395043194449
C 1.8112150335165205 22.35720868497875 2.963226378438425
C 1.8851760594346896 21.774526499591854 3.2438670965521292
C 3.3529539269187554 16.689563512844824 3.3786439058125546
C 3.9625440933699925 19.525437837606646 1.944751820921748
C 4.592171795348195 20.87773780191545 0.08424516776841084
C 4.481493591546496 19.481245232588535 1.639202723898698
C 2.306406682926646 23.033752087837765 2.206423449580148
C 1.051925889666732 16.716333637282908 0.7560107243577324
C 1.7742993800298856 20.01923788362294 3.44768282573137
C 2.232749765698773 17.3539895020016 0.4846589815644764
C 4.926176425941274 18.00099981780029 3.426707845885304
C 3.0878747849965738 16.163507339872197 0.7094722041572993
C 1.4423000676401376 22.97957080199075 2.875106939246636
C 4.067866000761551 17.23049214405261 0.11875104481524068
C 0.5022778206029616 17.986867825923916 1.620231858807189
C 3.648041039810601 22.458037879364763 3.557681328057849
C 0.9811453301745898 18.09917815603301 1.8372306687877544
C 2.242830151984274 18.64845441917901 2.659335138759247
C 1.3469562853854156 19.975279676181298 4.466628744129212
C 2.6934458859123858 21.293454074177795 4.4750989485286885
C 0.9491793870777115 22.51363566799443 3.427282563459193
C 0.9291696115858178 18.82223661673928 4.324748797857993
C 3.182815186600219 20.03474694688297 3.5376639940741974
C 2.3122171114520933 16.400758148662938 1.1588105025423623
C 3.060249290171889 20.312968200810907 1.9610413957924107
C 3.9925619645555415 23.636400144594155 2.2693615197511363
C 1.2497193390090726 16.20725727605629 3.9353097941751214
C 4.846063617367669 19.361511112235547 4.203778566866726
C 4.207819573968619 18.728892668381874 1.9362181658381583
C 2.625708894512493 21.31635230800369 0.3524850449144351
C 1.2257435374423131 22.354701894110175 2.147171308400713
C 2.3822634376502316 23.547935945336675 2.7186604172898483
C 2.9225368504875564 17.02213180322451 4.659342783120409
C 2.2934030710158426 22.667484059708258 1.340666401249218
C 2.4147533554761926 23.769477059689695 1.2850750499127062
C 0.5905131316261336 17.397773292630674 2.9287648350221867
C 0.11148609732241577 17.588418242847112 1.34720976492325
C 3.5676197423359692 21.19633233421139 3.907637497019339
C 3.1381788290193526 23.853511773428657 2.264888906219618
C 2.3944972653150964 19.938671068383968 2.673479139735263
C 2.777222439226421 16.102640326808107 1.0008495827103552
C 0.5214011182061767 20.60749900092748 1.4831410683928314
C 2.7057594029718746 18.225647531572513 4.11265747081133
C 0.9790683581207843 20.08192603931492 4.492003454202375
C 2.8716617927055648 20.880624501515204 0.6760919261708154
C 2.4263021752471925 16.679394124027922 2.774213108458542
C 1.557387577197638 19.19182887262682 4.758701098460582
C 2.957140705885063 19.26915064872985 0.3072196630070917
C 2.272946067532909 23.919689048343578 3.834011305078975
C 0.8367626623289326 20.715538418858976 2.673514506980135
C 0.9493193504059722 16.4299927274157 2.4785970098505823
C 1.2603631559702466 23.34252163237691 0.023857088759546285
C 1.6783171081840327 20.993617211419203 1.1175374788906383
C 0.6332219610093498 18.499703444616152 0.10157096245602071
C 3.0708831542854567 22.516321500663786 1.6778917741370492
C 1.9725497773882301 17.04734078841029 4.316326355530766
C 0.8150585109921232 20.224799334318906 2.710342308901584
C 0.7289994703199487 17.455927072709926 1.2636029974886247
C 0.06752383689896058 21.10921006770099 4.745551767858183
C 3.1461911603572097 19.78358858401039 2.2131956605426186
C 0.01469314367209984 18.39944907439007 4.495778244624006
C 1.2514147957529875 19.362181963279777 1.9038038818206422
C 2.206100966240517 17.97656373783788 3.05476596725968
C 0.8235352906766746 18.65039207931448 0.6046073224904341
C 1.8791214188101013 21.627912466872107 3.0400415061580013
C 3.267220165718787 18.141674367070237 3.9304632111999185
C 4.358407396853906 17.13313219695699 3.4808971010661116
C 1.744349569046038 23.70284228881375 4.7004211262336835
C 3.095131705812106 17.886782174463292 4.770389648787357
C 3.277460316675063 23.649547886377988 4.047789954724793
C 2.0230292654460107 17.95541679161427 3.81454805381658
C 2.5209879373988375 18.778138110763265 0.6354150222889471
C 2.015050258927653 19.886382014588065 4.558460298285376
C 1.5630569474571692 19.179068946793866 0.4556506162130197
C 0.9250215593275257 23.01584946888571 4.288369223092398
C 1.9795050966808954 23.126729164234785 3.3347429159975164
C 4.3624767368556014 22.988091942907182 1.2440189710429412
C 4.865396305373952 35.76431295744973 4.00927097057575
C 3.420699011671195 32.18823007062847 0.744414366606182
C 2.638603803992302 27.236143150601528 4.678027387465289
C 1.505750037171375 38.95609917246413 0.5286233887517156
C 0.13831815422008398 24.77274705288288 4.43021589615185
C 1.8775798394298309 31.843874365443263 3.83320975608196
C 3.1606627184943674 29.15045026109194 0.34113409667449524
C 4.665034378334468 26.228333814203417 0.3556702377424509
