162
#
C 1.3150049354294346 14.367386486876727 0.7738787945826386
C 2.57593151596216 9.64499137227192 1.0382321769674407
C 3.6871702604942005 1.4156651314657847 2.7265824816965782
C 3.692712722163571 4.538358038852289 2.0122355050244427
C 3.0096285714575126 14.693545535935483 1.7236013367935814
C 2.6897015054108135 6.564097836414666 2.1254872865592804
C 3.683115285507462 15.898267495796278 2.2228860818537037
C 2.583409301562712 15.082842769075786 0.25913972486634407
C 0.7944892366783823 22.79338740618782 1.3526044796405863
C 0.8359937768320602 20.22956659889659 4.897221772962567
C 2.785189590602664 23.392083395181004 3.651033239467697
C 2.6852850610021455 19.886752688476577 4.351833402239107
C 4.402885127799372 21.080082056299798 3.562898580792929
C 3.2296017234321024 19.663047465799423 4.3273735202257075
C 1.0276939451337597 19.5762374765166 4.491619594219236
C 2.5399125926408717 19.7075784102417 1.8035892628023975
C 1.4031191228397795 22.539843054993458 2.423948505448582
C 1.0635604154651257 21.193470876324454 2.4458355857536795
C 1.7539509030851512 17.963341189967124 2.475570232244217
C 3.3345603989047037 18.941464036603342 3.3783736601768775
C 0.12195255977784092 22.254793820656452 3.980165098280186
C 1.5756356315157278 16.659206360047413 2.9395297063362014
C 2.4256909514162652 17.02036769951642 2.75998023462211
C 3.14445437179379 19.22176763270815 0.3139499426923148
C 3.8201209882084335 19.28817147016396 1.0911213329723646
C 4.025474006328163 17.369017359033307 4.8247803809413945
C 3.3520607406078957 20.732439106463943 0.6628080239657613
C 2.388077827815004 18.525677732136124 1.7913521382457143
C 4.169039021533006 16.580997620010372 0.9877922148558271
C 1.8205823813006656 16.613010979368948 3.1613196290673944
C 1.3798805562584537 17.48089849365246 3.712896358756078
C 4.096155918916801 16.600017726667758 1.7396868843785473
C 2.299554281295064 21.507210759540868 0.5136921685706541
C 4.278573035222765 23.209198628223 1.8999366368061554
C 1.1144293840922737 23.6228631535907 3.279667732893898
C 4.165015272827129 19.831873041518357 1.037757524903466
C 3.531610138020117 22.855051852697894 0.18503862901669055
C 3.6271991332468905 19.356997335911707 4.604852927336525
C 2.345137525078711 17.197723034875136 1.8455359862666003
C 4.391167817457914 19.823991155555564 0.08553563099828687
C 2.6266093580329026 16.479184631633032 4.042706473522047
C 3.264298813865279 23.179011676133257 2.8520666641067423
C 4.825258771220641 19.43880497160508 4.485683677627975
C 0.08494593142725326 16.32644167300999 0.44448150957745014
C 4.608124195416012 22.67845964934853 0.05705849402123486
C 0.09921531576302822 19.959453339077665 3.72596270371238
C 3.0096163007449315 18.028095621879608 1.4412998568571722
C 3.7200509546898846 21.020511168510506 1.166273657879307
C 1.6975952392591216 22.87810291492767 2.010766524243987
C 3.482743162956108 17.97211730790892 1.1617845900261154
C 4.3377975096352435 16.18737211715065 4.314677632264157
C 0.982035868229697 19.976954262098563 0.8789340305918175
C 4.139621264514536 20.41471778185484 0.5760098775753103
C 4.083581759127331 22.91996152837758 1.1129063675201296
C 3.3726519168802707 21.97570862834784 2.610651416763789
C 4.441128167876539 23.459239098658696 0.9253663675862034
C 4.3001984759071465 16.921131776616523 2.1148621754578736
C 2.412306431322771 21.099483591651357 3.936808270514504
C 4.238617067730784 22.826327744422894 2.9736905692486104
C 3.9785637093621276 23.627572898999162 0.7194625689901557
C 4.217670042495152 18.9596119878017 1.526568092707622
C 0.9003354212630743 18.94084391669296 4.0524700212723825
C 1.9139886165336872 16.62285343481662 4.423574275244539
C 4.158020277581796 23.216247948569684 4.743580253888965
C 2.754887443701848 20.659010214034506 4.3132188043676765
C 1.1166811051053434 17.400068601681 2.366930175558522
C 2.788759368986264 17.206968203203928 0.5936237454010374
C 4.440952108442101 19.57048311875892 2.5663649479233674
C 3.881228495449145 22.51594993499657 0.04560193226301523
C 3.363262033710546 17.53299899330363 0.9631851959067667
C 3.4837408015846387 22.559838564882632 0.06004746220175494
C 2.8014277254359983 20.242003019548466 1.3084337416996044
C 0.23625119381349147 23.478527165123925 2.8439745770747304
C 3.3693279468646975 23.637361675390498 4.923035234060961
C 3.853921369932255 17.68027089959961 3.9140871136780566
C 0.952203054578934 19.183486014019792 4.863401661265082
C 1.3943527997081417 17.862744827715552 1.8071830938129274
C 4.319204401134526 23.677603566536547 1.941671114122323
C 0.24939983268475852 23.74030175644955 0.7703657378612006
C 1.2640181200810352 17.515248644676134 3.1175126774687296
C 3.313601736525586 21.09742875387031 1.4111271306865274
C 2.9194806809035305 21.958309992097917 2.096387772803874
C 0.49227685175750935 22.84304716179008 1.0269451863515955
C 0.722391999193504 17.06587057836483 4.24977789745046
C 4.6183836164689165 18.92967227080596 4.892907816980589
C 2.343276893093436 21.32420026669154 0.008324187206774636
C 0.06389788041566702 22.01045711552078 2.164989452886875
C 3.721384052438098 17.054492117312616 1.5274258123629698
C 3.0267102096728915 17.5883758772555 2.784198367947097
C 4.506726133231727 18.425822237051538 4.311335405529241
C 1.831941353910409 18.61916597449835 3.4946977253353353
C 1.6585181769498347 20.571861548915578 1.301667620595412
C 4.364265045297368 22.237386679164963 2.0198771826128255
C 4.056863828509788 22.226277176719044 4.982473634098981
C 0.7112986556122108 17.606743006197476 4.338066863448092
C 0.09913378348307078 20.855857652697487 0.10703475232164916
C 2.3169855169033355 21.026018410271906 3.809658367556064
C 4.285709376343481 23.004503857750898 4.461841936273686
C 4.1543897329856385 23.28135381343828 4.023997550835671
C 4.526321809261488 19.406037005427073 1.6943146087258065
C 3.5847649459251567 20.752936472140348 4.866162083258971
C 0.9486725939698537 23.30948507098839 4.230411863806139
C 4.795565333106081 18.693861778709156 1.5949124493289908
C 0.6815069578244171 23.50568402155688 0.6849789776975412
C 4.749112142708152 19.695348046721378 3.925713667139637
C 1.6458954423292522 23.27177138468788 0.23008691268369907
C 0.479317618571361 21.243963221830775 3.676287315156123
C 2.8028349301310165 18.602900136376615 3.707860075227614
C 3.5015451172353176 18.70193082779147 3.2149050196324986
C 1.3481047907155825 23.610681685131134 2.410440103463742
C 2.2484956540526935 20.282760448857395 1.2871361660922624
C 2.673275132647199 21.539722686558985 1.7590537625231573
C 3.638739442911936 16.718869465198722 0.6628737195687867
C 3.233379722142351 21.892284743788615 4.628838139085982
C 2.6042924995255796 20.74977146329026 3.923370171858864
C 3.6903973495286784 23.51433056257168 2.8207851169408658
C 3.8384853944612263 20.476871138076856 0.1074077829280623
C 1.3476431740548112 19.15509715522576 3.8896633944520493
C 1.1896048358664983 18.489611388641382 1.8976016549042163
C 0.33804668124976844 16.508569560520264 3.2491845217301614
C 1.2378895140425756 16.402781496517544 0.9893871704117085
C 3.1519680902709606 19.921520963965868 1.188084625460755
C 2.622814226301447 18.849716860109343 0.5831884191750858
C 0.2838485024256343 23.792558845881913 0.32424276884523096
C 1.6331822773035638 17.02820333019838 2.26478705686619
C 0.929951892847235 16.98676305409178 4.220699117976243
C 4.095672655412663 20.87273425595348 0.7751801998063051
C 0.7704294750365681 17.412206542788667 1.1713665092292964
C 2.604171914499154 18.818992528298377 0.33269611531817567
C 4.2176727479674385 17.344478744768654 1.4007622472285992
C 3.6446077337847482 23.636369662013635 3.664469812883331
C 0.8968686281528665 17.559517486680587 0.48166217630423114
C 1.3419298683910108 20.017681164030126 4.1344051784202716
C 3.9911384793489155 18.92942960899181 4.224466622907486
C 2.125063845693856 23.859871002818657 1.4519647262022117
C 0.15829273788411424 22.783258360081774 1.7579643321323934
C 0.3038571207106672 23.698349064267692 2.8485546735677634
C 2.682316670671229 17.301450848984715 2.627538886227187
C 4.759554897520402 20.588548912097373 1.8906923278227588
C 0.6959043424199107 22.23882008164798 0.4534052578371023
C 1.424839545201857 20.46210443740582 3.7555771584150706
C 3.070022695755874 18.77385477195514 1.4263439730774474
C 2.7046953830310336 17.997546333136743 3.9923505808508604
C 4.911538271313887 19.025131362438927 0.06595599561914467
C 0.05959076593745005 18.608088356187555 3.1328784514804204
C 2.6272440438638363 19.7248170017086 3.075303492180144
C 1.455344118771733 21.50353543537005 4.258704242586932
C 0.19403117740173392 16.28287972337634 3.4726131466030226
C 2.9351682035743014 19.238838998122354 1.3569413278048559
C 3.1749804234451795 17.5118642561542 4.025486855374817
C 0.8596992665212061 20.526844366614213 3.3606096264900125
C 0.5641164435730467 20.71103453839813 0.4724685459416733
C 2.3675230284007225 22.97264576103385 3.1357015691353336
C 3.562641473072542 18.741932017389903 3.687732622707423
C 1.330636072158287 25.013598894082904 1.0932652332305897
C 3.872218931114727 27.700660400188028 2.5099370731561925
C 0.281395375000541 32.900872706189084 0.0346086082903424
C 3.7384135546688393 26.12213067123045 0.7433390612648733
C 1.5310100859330462 37.19625918078492 2.1238732000038003
C 0.8587029648853534 37.22902227539866 4.486168229747166
C 3.1199459488533843 28.102472068603234 0.6373631379561084
C 1.8883316741783736 35.8430364578042 3.727981429646902
