30
#
C 0.6826035506840306 7.116754195234508 1.0378361516889076
C 0.6579382174497304 6.573816082485126 0.28207928578401176
C 0.8431707985508856 6.289560860373621 2.8647923546795595
C 2.745151943684648 6.642224927314779 1.8265148045389301
C 2.654940299673171 7.176485922693483 1.8146995276109341
C 0.7480977037670954 6.599157692363075 0.8853463651248046
C 1.730921534387749 5.608567958442927 1.1763335233489765
C 0.269866929087631 7.115000537857544 2.6074880303620382
C 2.0151266967956203 4.838961086843605 2.8253383362806863
C 0.9711919182847389 5.596524089204717 1.840051240065531
C 1.13112593688712 5.495137521911133 2.904182335188115
C 0.6720118681695647 5.721720747755866 1.7945536029242442
C 2.5966223710643295 7.090583239586011 1.324134499145238
C 2.0651072904937955 6.96223797172641 1.4336017811430064
C 0.40435218400224215 6.450521064771924 2.423985331540176
C 1.2834196066819157 6.09847373691133 1.9356957074088599
C 2.9892545816160023 6.4301453194909906 2.4839825922121426
C 1.0374702543773933 6.856985637049796 2.962123509102786
C 2.5725329514402726 5.674632496963578 0.8422692884453168
C 2.084344530130163 5.168184218573696 1.4800732408649604
C 0.5714138106347199 6.1882705643381355 2.245179304366417
C 1.7483315166831592 4.979301331882867 0.06101968528707702
C 0.1393512973436295 5.620065301233259 1.8997859750065063
C 0.9455330902605851 6.749699667027 2.3568913316140607
C 1.5274742016506528 6.329778808567137 2.3259213779918886
C 1.4014031478167839 5.321373455305909 1.6044588161680284
C 1.5422603851650907 6.596574725582797 2.8144432340325682
C 2.125290061075208 5.184414111049051 0.13366064597559835
C 0.6875672176685917 7.128935078775445 2.599866857244265
C 0.5455928855926476 6.009801000073549 0.858873487222417
