15
#
C 1.9338685529143265 6.022992936051799 1.0592533127206474
C 1.0275760050204144 8.010418442805449 1.0812171065123193
C 2.100828832667214 10.648070283474436 0.920214996766081
C 2.0697020786841165 7.113296398768749 1.3083262552940176
C 1.6943421728854906 7.5990784158951765 2.7440276719396324
C 0.5964974435725762 5.4473050028750905 1.177577527752233
C 0.5464898804429077 7.142236864787038 0.13099422080976067
C 2.988229070868858 6.521654416126043 1.7492679211785616
C 0.9908363402647814 5.9632011802201115 0.202074200628951
C 2.6983511312137782 5.1208881751184006 0.7761912831623355
C 1.649000500169113 6.696198080570524 2.186218598125933
C 2.877635143595463 6.241000756972346 0.5760692433462751
C 0.31165364545858515 3.435163126420821 2.9665239801655527
C 2.0598855045713242 6.766470489885652 0.29190984509637563
C 0.8829588791282041 6.664686476227216 1.1122461519960696
