162
#
C 3.36681775025017 5.950353313814109 0.10230140082192418
C 2.959667580876956 14.123601994481222 0.5251880309475848
C 3.052822679233672 1.7992729796200084 0.2993697355063091
C 4.036684734222619 8.464018437061256 4.550894560009645
C 4.515855471174849 3.6456546206703138 3.254532661890883
C 2.3657043771599846 1.7075711464279149 3.418442950418754
C 0.08929765955133784 4.425872551335289 3.1348189420417842
C 0.5782877179049767 1.386040187400413 1.1269297120234611
C 4.097275279258401 23.367933792153693 1.9449718919575414
C 1.8507137075272757 23.373723496287408 1.4420069540367804
C 1.7457748203398982 23.393358905573454 2.4802338269332798
C 4.338957898499264 21.744740160094313 0.8072144094287315
C 4.474439537564915 22.02091426972197 4.60812198567304
C 2.6484661993477445 20.37085010631103 3.196820308800019
C 4.386394815015023 18.21148383951232 4.337551496746858
C 3.851160705566138 23.898049274448887 2.9209979129351407
C 4.844398238510744 18.43333246312529 0.0489447201001586
C 0.19214086764136606 17.399630665424823 1.6186994311224556
C 1.3743897160423209 19.999432527986798 2.8764565250098824
C 1.651228904501452 16.070960738183924 0.45736610504715336
C 3.2113900428456703 22.02134602707254 0.18949754139393482
C 2.6488735290516656 17.263932939102844 4.3001304717480995
C 1.2148262058417574 18.858393757225887 4.096496708346597
C 4.056604663509423 16.9619982550524 4.027170081080194
C 2.7154055583948553 17.782040674316235 0.4113728729946525
C 1.9022058059895908 21.073550527626676 3.100126761252472
C 4.678550450362709 19.750393758471184 2.844632208125722
C 4.959570733699972 23.94724174453343 4.587320602615856
C 3.4316625998410215 18.763682407146604 0.36813861264470116
C 2.386852410803245 23.158329930874444 1.1357718157350543
C 1.9662815352248553 20.667220097336 1.5701011843674202
C 4.839179064718068 18.8369824940783 4.982850278265609
C 3.6180458058043263 21.78660935541085 4.513549285713695
C 2.908510285854856 16.85247370953431 2.5933302612899785
C 3.5461680616979123 23.429863265917625 4.919724261314806
C 1.8739919192677412 23.347744362391847 0.1547568631044688
C 1.912878377748069 19.384889156920856 3.2502995470291687
C 1.5690434948583443 21.583574153013856 0.2340405629927611
C 1.1209645213865949 20.886662245367198 4.709143968742187
C 3.9434376820752637 16.592541187832104 1.5504786142484233
C 3.8952454536196535 23.0717380604857 3.0175913162381467
C 4.3708138582794 23.337265965702223 3.259160035083957
C 3.802577592341639 23.646971158440177 1.0876985592375328
C 2.498737581229787 23.189257589570687 3.658813593192824
C 4.951149835684948 18.656802320603276 4.098574026213167
C 1.8950633970839577 17.07485553015278 1.6999821355297828
C 0.48180791703534454 23.995703112527927 4.701458220992701
C 1.1701949184668954 21.761102960765296 0.09293792991982075
C 1.675880943058921 16.65795015603897 0.7099222257891463
C 1.5157658884689063 23.28816796707201 2.379905962376683
C 1.6894684759358614 20.84144669482531 0.7920753667629571
C 0.6623411996057282 21.145550839072257 1.024268934429689
C 3.551638610960108 16.348554485387687 4.340454822574532
C 4.228514654587936 21.758987626423206 0.22243145507107764
C 1.6111081819769297 18.424211946221483 4.673822841928366
C 1.01100246860043 22.490201632922993 1.0969454834687582
C 4.142332607854725 17.956485760763414 0.11846485414091057
C 1.8285486600909033 19.75300387679743 1.8551003243226216
C 3.994871805512899 20.845806595774906 1.53340676499923
C 1.4050097029212045 21.75805734136103 4.20709218016102
C 2.9881064956701326 16.193513982566046 2.5801062726432598
C 0.6221014625102028 19.10819573419335 0.2065640470218283
C 3.429783239512629 21.35190657623023 0.12702494723782043
C 1.764904686431099 18.553481809873805 1.8362205350008687
C 2.5074972133196836 20.195232990167465 1.7739918030003516
C 4.405845146121904 23.14585383833607 3.2341996165197138
C 3.6274606184348075 17.295285700788554 0.4895854494487589
C 2.9044133811756567 19.686507896579553 3.2432247178231832
C 3.7025799875633187 16.965830386077897 0.3638115258290908
C 0.9652201540422878 22.567681427475407 3.4015295951304756
C 1.1909470055099747 23.67208784706975 3.9364542501486346
C 1.975920719924407 18.943561043294 1.9289733104581142
C 1.4236584261937963 17.423567241254915 0.2942470462266328
C 4.5198628025589205 20.868660429392346 3.691569729222706
C 1.836808624868722 22.471379106797244 4.624653209192394
C 3.957966752620861 16.366226166530435 2.335251056522928
C 2.751304185792458 21.136713508573905 3.259073124581163
C 0.4551181668866783 20.211686917587087 0.05033982730075548
C 1.9122231460685313 16.271434760338146 0.32279858677072615
C 1.820681803484185 19.97329770059172 0.8498257844157314
C 2.0412327696410326 21.259378965965944 0.6514810710148367
C 4.589832737365885 17.54048007401219 3.704882945820967
C 3.16738642107933 19.224496886836196 2.9639193242088187
C 0.7162372904214964 21.976253553468013 0.1693275733101801
C 3.448994238922271 22.91235619145329 1.7999385388146927
C 1.7301584837559032 16.518838707363557 1.445108378616865
C 0.5139462664904776 20.591898630192844 3.3753980929156437
C 4.302446197792105 22.268606515376177 0.26435200460903807
C 4.183194720804806 20.151495380299714 2.4924760210789723
C 2.23002363637989 22.915256379341976 1.6459575864313136
C 3.1994973658618457 16.361440709453184 3.156561324642004
C 0.30690483558401926 17.475489115609427 4.923133669530824
C 3.3036429655553152 16.747586383856877 4.3101623079631715
C 3.597595600160919 21.227033997317594 3.7674129044090696
C 3.2927584408460437 21.084345605224527 4.99198921778987
C 3.1302600150991484 18.834097322464316 0.740147913670412
C 1.7432364281797326 16.388502429906858 4.853661727639893
C 1.9526629325355334 19.31887877803343 1.2030991066809515
C 1.5869664523888294 22.693986195045937 0.4113302892666909
C 4.261071285971173 20.42805300897269 1.9935816291233204
C 2.8694031212620263 17.91316861402911 0.07928245454157434
C 0.6559615098669808 18.256957892939337 2.1519840203565903
C 2.0079232790969237 22.08376507000615 1.388160186073439
C 1.3892256044346385 20.115659218153397 0.7377608909655375
C 1.8184170953550671 19.34133955844748 1.0326140654657634
C 3.0026490428404884 18.73312999636758 2.1567361068601927
C 3.688231082579426 17.858538857206227 4.858908721652738
C 1.20092893498985 23.625741748251105 1.6204594493912765
C 4.623031417337082 16.91381714569609 4.785035153055953
C 3.4277028470587894 21.57311002396678 4.139048155884551
C 4.494336264245425 22.912658094084197 1.0384348775877195
C 4.848899398520605 17.354286977171142 2.1871747074093983
C 2.2575956263632158 20.3483842520708 0.44205178879757334
C 1.2367211415750168 19.80457791350928 0.3060476868093065
C 3.462866332681547 18.657952780196794 2.5352591137181317
C 2.852029848168838 23.46462468125919 2.302175561683005
C 4.756990280389972 22.69631706657151 1.343286206628676
C 3.9695420256912586 22.162908354076798 3.0478247136077687
C 1.2298760458333184 16.789640890745126 4.1712905812579235
C 3.8414989982788788 21.15967892244759 3.325974639772047
C 2.1606922922661975 16.586122206007353 1.7530389094016456
C 4.048842575632469 21.99553274391266 4.914142201850607
C 3.8372725196748347 16.036718708168177 3.420074420842117
C 2.6505748956721775 19.422909528182615 0.8012572124168937
C 3.868376568481046 18.04102715545549 4.684612762735714
C 2.9942076774943667 23.721634801719794 3.6483927378362404
C 1.4429760811457952 20.932605853174795 3.439004236063595
C 4.668651993753158 21.007771960305774 0.8476474979701737
C 3.971146476616765 20.05689678583522 1.867961858699616
C 2.73071989871118 18.68178301887261 0.7737752455713237
C 2.596911103688701 18.68392085115301 0.4738332725783939
C 0.6449253807341093 16.082101736950925 0.4720015248074
C 1.1430798234686868 23.146712549165127 1.1846988876198346
C 1.2415487992437164 22.104722484368384 0.4997119988692794
C 0.21747474029121638 18.497431686732597 2.0394596910391005
C 4.559653114116449 23.823284247456417 3.2020134279934718
C 3.9073061569090695 17.237681820431362 2.572197079357777
C 4.15342395064206 18.062168181793588 4.740846546014895
C 4.899084607186906 19.66091865353041 3.6756295759171898
C 4.287259531670607 19.007646032556597 0.09748472724454171
C 2.3755700939372657 17.114264078553962 1.1409926837075757
C 4.828762039594807 16.55863155862915 4.412992979908966
C 4.339117736316381 23.803224304141832 0.6092957998940174
C 3.3272857396941498 20.938555529462455 2.8323324290670246
C 1.7165048319911165 20.06258166261094 1.444225666860619
C 1.3282808414208769 17.741182966487862 2.8633721543555106
C 0.7956111502788571 17.554137038539373 4.1714141288317155
C 3.7845132369466414 19.226779058753472 0.6394313973955007
C 3.3797146962924622 20.829041993161397 3.5378318033863856
C 1.0799326338413544 19.651806930622566 1.7318859264578284
C 4.396341577323076 20.88932822681229 2.4266465158923096
C 1.9482493793177624 22.27388194016807 0.1350162902869928
C 2.6032543180025187 23.26645084686098 4.0286295376223205
C 2.1249045308886476 19.487076959754038 1.6301535598206085
C 0.022359781710372673 25.756004099852127 3.396340555857033
C 2.7405010754160184 30.684923427407895 2.0205259937462454
C 0.9616209060347253 30.380063953253888 1.5254545107448614
C 4.400778109061977 31.586759388825655 1.7509306784397243
C 4.269786348580442 32.42791364839975 2.5896472137264235
C 4.0764377338003595 30.440885131777648 4.661864420419241
C 0.9022588590116309 32.49826475117756 1.1026255382916155
C 3.630996771215376 25.387634060087827 1.5582631568995386
