162
#
C 1.1124774391486603 1.661713199585673 3.4610626106300573
C 0.9046123294301189 4.676034338616386 3.3186956372171657
C 1.5433173987848836 10.308016348426156 0.07562939647082989
C 3.1478853262073576 10.093627151336724 3.347652873234124
C 1.02217376176161 3.5028168773016457 3.917328901598825
C 2.5205231252088263 11.183827760298444 1.721849267609764
C 2.838029045327508 6.908437595677526 4.929854378624977
C 3.5240440148558863 6.56209436678717 3.665729133078891
C 3.1217926384690116 17.59184180066896 1.8731702061951876
C 3.5836545927074925 23.03145000962286 4.5074488551883345
C 3.1874038756402223 16.228080806865698 0.9110949270118424
C 4.804358411746537 19.869488711166092 2.05541977142005
C 1.948778273357752 16.750388684270487 0.2172228689062211
C 1.0158931012599248 17.602459625395966 0.08595388028977968
C 0.5905580177357095 18.80095352579312 0.7977052893902431
C 4.105152060992317 16.21601642307231 2.695930130982504
C 1.961878820876447 21.61476357476708 2.2042217448027364
C 3.2520751918994657 23.562187312610998 4.789978679427493
C 3.1723470552901856 21.550798124518302 1.6833058895166126
C 3.87530719532682 18.226964033919906 1.1534193575127967
C 2.361012875073815 18.500389993148296 4.954915826291769
C 4.934873474393255 19.99972306616211 1.650114922745351
C 0.9693366877522186 20.883890041272448 2.1744157091084695
C 3.183408276322606 20.72081573100811 1.201185469131354
C 2.0934833111872244 23.346433323098115 4.395367465444886
C 0.5303521851042964 17.697119055092223 2.8822876842207674
C 4.639514071954885 23.94355592015093 3.9813391538928955
C 1.3250498082679618 16.22091280746642 4.670928920756122
C 3.3999094671792154 21.82395055627395 2.1211612709776944
C 4.536252827816558 21.124633969003455 4.646971032665796
C 1.2794811047771126 23.557801485385976 2.1852454854628496
C 2.322828449599874 19.671023134013222 0.5870193160192971
C 3.903257336427655 21.452390667564686 1.1373549659483817
C 4.396457933635097 21.310495903363215 3.511132351479956
C 0.9332116539900903 17.02184531159878 0.7913372557410109
C 3.572558300422407 20.86584324875792 0.35768784657220054
C 0.4721397893828949 21.058199940019193 0.5227216899889975
C 3.051606904334599 18.04928101108699 0.33578921129499395
C 2.5584203283798073 20.31558371943562 3.1245658519837183
C 1.7346060615071213 21.238273215229988 0.3292656943749489
C 1.048990145632303 18.0619766717982 1.6410742028958203
C 3.7516533922192714 19.61917167215159 2.564718405223422
C 3.87902674737693 23.232015322753554 4.053221074778647
C 0.07336213245711154 23.522864187734854 4.247315272151605
C 1.201473022995655 16.420439800919578 2.192247958973017
C 0.6161833522730564 18.64300647952608 3.758643187233866
C 3.7942884653727944 19.073181386599547 3.78396096858034
C 1.0746700025829092 22.262882076746727 4.425904141511608
C 4.609963968674554 19.72490842397312 4.8895487956327885
C 2.797464693777073 18.606964425211096 0.5911295026844038
C 4.648620116647867 22.997625417453214 0.28235072801129746
C 1.2514737607906468 19.79492741040754 1.686769243490699
C 0.7849819101136457 19.98474827842551 2.220369113284802
C 1.2343053846761587 23.77389831284332 3.4917358529411318
C 0.9922661275255817 23.780979741148116 1.2783066092052553
C 4.8073531766011275 22.667186975632212 1.1926379066568649
C 0.30342885223804406 21.235283805519217 0.8223405009605117
C 1.2822249700196782 18.211363222220868 0.6228483144198449
C 3.720715309097247 19.830738983640895 2.1709750175676845
C 1.7864495356814496 18.779598119876947 3.7348996618504886
C 1.7544795332013834 17.113762164669495 0.9251020448214564
C 4.301382940319017 22.93801417225835 4.245044226284224
C 1.0925499853129605 16.8964214534648 4.988126076530886
C 0.4642449756407496 16.471442629050603 3.4508660419803094
C 4.814730565525086 18.26752863540623 4.654541622283423
C 0.9374192956506483 16.52195152498402 0.8956139764745752
C 0.5832966212063906 21.57434397239211 0.46727957132054687
C 0.22031453018293456 22.584013928538866 3.1149581599493037
C 4.673019611294949 18.836525891187012 2.6033189725565107
C 1.3324548659028534 22.209716195696217 2.7626598953442656
C 3.9705074026187748 17.751131983976162 1.3377197182688794
C 3.687796007113283 20.93519729453238 4.818844165534813
C 0.5783806523454144 22.28203423157148 0.6361208660925605
C 3.4681689286974877 16.4443029722813 4.094563474107849
C 4.484309647964943 23.28502840551137 1.8768547570372451
C 4.600899923905183 19.389124299621777 0.9487341893580842
C 2.4849909915872823 16.8996251797525 2.946480011981307
C 4.648342306675099 19.817095295734045 3.454952228551354
C 1.3673961814691848 23.64489695910773 4.6326270807946095
C 3.0360931120953305 23.438586182406674 3.4804990517789713
C 3.7069255058551267 17.422103194599146 0.9168286252394947
C 3.1426927597840266 18.102310596996706 0.5006518944171501
C 0.31118164381119084 21.354928513556388 1.6908095881443652
C 3.4341835405437267 22.04137899073877 4.04329259357112
C 0.3883012110717221 23.53086443981048 2.5233740314896425
C 0.18347153298872543 17.39809051800036 3.5025635181071464
C 4.1052418842593905 23.640379400634437 0.05592708362283705
C 0.10457965577858885 18.807956362568476 1.649436968577841
C 4.9190019441142345 23.052786706353388 4.030607967682135
C 4.624516718132887 17.105236972190326 2.4452132414658827
C 4.070065408739275 21.22999488480901 0.16135849528933988
C 2.9804098155182484 16.358966087309103 0.5979992501552933
C 0.41297054082735707 20.816497226947675 4.074800592306051
C 2.4169544874901443 22.807285960491757 3.959267519899829
C 2.005641911976336 20.627409963102785 0.5233224888032578
C 0.6250109583580016 22.66981324947503 0.08141250893343721
C 4.893583525212637 23.82024765041609 1.6476763763338758
C 1.884278055759011 23.130034780066282 0.4623828652430195
C 0.7939412939160606 19.10953530170856 4.403106320050815
C 0.6871890346245652 18.28770739755664 1.8704666512916663
C 4.91485041099412 19.288068775546904 2.5342436489076334
C 2.1902612119121945 22.915827025293876 2.907759530868086
C 4.251449001863266 18.1021738343713 2.9113903566888277
C 1.5386028188236152 19.197810162478774 1.2800736666536872
C 4.386828322376971 16.253545417290955 0.08153914668967754
C 1.1286261634433576 22.480559596037878 1.600984327511401
C 2.6612959462356307 17.32038780188189 2.5301778507208694
C 2.0253102667305853 20.141998331791896 4.411285167040457
C 2.40472724341213 23.519008351104596 3.3086194006073044
C 2.4597372956156094 17.504687848119374 4.986272498293203
C 1.6266786375678683 19.479174766933376 4.318951993736871
C 3.9985066779243494 23.542561246309297 4.565981247806997
C 0.1857427086389557 16.61471738604068 2.516357785162313
C 4.068812365157971 21.81643146303822 3.9830820899155945
C 1.8594267841125844 19.93641105114066 2.9746272102203637
C 0.4791771290020336 20.21653422265088 1.767163998757838
C 2.395180442540445 19.538505309123583 1.3359639260495915
C 4.033098900735599 18.02787856313696 4.8004681052311415
C 2.0086198291887856 19.63802571438544 1.745167217069512
C 4.709500892494233 18.823366772634465 4.661315451924307
C 3.7534688048057703 21.686421509606863 4.345691578265894
C 2.705728366594115 19.328873273051258 0.6419262008235166
C 1.7884345931041028 21.697829434832776 4.0055546070878805
C 0.40562162946113534 16.09705152000575 4.350887732252397
C 4.600218314169496 17.555154902097666 3.518861307093006
C 0.739551751098726 16.77930102978193 1.930004442012223
C 1.1839507610193771 20.33823738327382 0.2624644052890329
C 4.225872652514198 20.30124901022359 0.7551724656703096
C 0.923501036706183 18.845589140144657 4.61536592774999
C 3.4809646024162477 19.217175044044147 4.832537573573366
C 4.429152304574707 18.55259745199998 2.837294453642489
C 4.188548508531912 22.336335388502512 4.047334837745828
C 4.99996171858191 21.4278735108839 3.797362852438495
C 1.9746030699744828 20.86023572113999 1.3411741167574398
C 3.859864034472762 17.948591786394626 1.585296082844871
C 4.337878028373592 17.23130873462333 3.633230549755516
C 4.142208044558679 18.14004684001499 3.4205613789558638
C 2.51368310944911 19.601897129639298 2.910474268198078
C 4.309913479429774 16.837548895002 1.148260765973912
C 0.38286788275905315 20.773529342477563 3.6461112764650756
C 1.9172391359998713 23.29799552888993 3.695327626041412
C 3.892654478309396 17.14773290631908 1.5477505848547986
C 1.5788995241576476 20.06784909128571 2.319999712965401
C 4.4362124776971 23.33247643213182 0.08283535239631823
C 3.8362712118643687 21.659023435370344 0.5474998246321139
C 2.727771028414648 23.39587782805527 1.7196933055028363
C 4.618550958324465 22.291071995353818 1.6098385501450063
C 4.09681485511245 16.681663216068657 2.82902361997993
C 2.6809586442874966 17.858258224003393 0.744393704597156
C 3.250392832260363 18.49846827676247 0.19686185166557957
C 1.803604152919982 21.48456769717169 1.1241761571068931
C 1.6960503647773684 21.02752196317217 3.117777015772588
C 0.9458658279663251 18.469818729965883 2.161288520181404
C 2.7642691083890307 22.87540797306451 0.6395450124031477
C 2.809121217909296 29.884355252821173 4.4564607790957425
C 4.82190874167369 36.24917266897744 4.937628225736218
C 3.627985029150251 28.48723044312482 1.0080806705998957
C 2.034205407696943 25.6993515837782 4.60762833626957
C 2.150581605661455 34.387273193379066 0.4729123693656234
C 3.928461313358666 37.15062731405723 0.8280645707647882
C 4.4865480695950115 28.91634989803938 3.648191494617767
C 0.8400128973384952 34.9575603409459 1.952630695417712
