162
#
C 3.412590062586745 11.605112410403667 0.6615378152817347
C 1.8516326242005996 11.537104624960726 3.6011920629705223
C 2.827134547452065 9.512240625875798 0.1295565564560186
C 0.1811851187312421 14.785376266434247 0.3811390585330714
C 1.0123343606672084 13.721174077800384 4.3529019160994
C 3.2137623121410357 0.5384454497792011 4.263035570963374
C 2.3275027396533776 2.2767398238388274 1.6454954515027937
C 2.7270949251108774 15.422652713418788 0.9838902586244547
C 3.2439035349817034 17.691853996004394 0.6954188739854619
C 4.399950101176589 18.684704985406917 4.004947225675686
C 2.242401949314676 19.10211680859741 2.1047858110164483
C 0.9857773531468406 20.35337172249102 4.669836921426854
C 3.029863186278454 22.02686135555195 2.551319067921166
C 0.8215228343310796 18.16353781863397 1.0335427480335846
C 2.719694396867923 23.676528327683222 3.0274899540034874
C 4.396401882728518 23.73255028318657 1.7051129439484725
C 1.521551816595268 23.891735234493556 3.874703072381998
C 4.58598326711755 16.97378176235109 0.47258223458178195
C 1.8828652882593981 20.59720817390383 3.4041035997679927
C 0.7805465759870622 20.864239856489352 2.262196954033569
C 0.07457957603267917 22.037166108617065 3.772528441965488
C 3.892207067103924 16.617760470982947 2.201760669734635
C 3.604258164346051 19.453864827154792 4.722823326850909
C 2.735901822336622 21.780697078486625 3.2463796215653096
C 3.280917148120881 21.950087560172175 2.1580499228506533
C 2.578879570884464 19.501111267781024 1.894930779604446
C 3.1514948852548366 22.496206258893885 0.48036890314816116
C 0.8139634270310403 20.068389455403118 0.38727084053483185
C 1.9494077506339427 18.231318896697893 4.420293985600709
C 2.077127551805063 21.63987824054555 2.787280902163223
C 0.09426416427580797 20.267732902637253 2.376129859753932
C 0.8115032982314143 16.898118484619104 1.119389621272544
C 3.2207809225310857 16.543571370419365 4.1033783924093905
C 3.1230792657182262 16.35891689331456 0.6102910890840256
C 1.7842338496420762 23.676758216784474 4.707749996383298
C 4.83907244366417 19.898022232117007 3.800412786546039
C 3.9715174555973154 18.530887875714697 2.260244445470726
C 3.1051610542749533 20.191708512691566 2.097968058860777
C 3.5558193582675193 21.43741506827837 4.792185527231936
C 0.4436876330511236 19.309879744373635 1.6134206492822423
C 4.82725614247228 16.97414063606014 2.182740150049331
C 3.43825995435162 23.12849662218234 3.4373464817043544
C 0.8267979058583141 21.16850353127508 2.519848605101027
C 3.4700395901619348 21.955226374761786 0.6218038919806707
C 1.7613433303430055 17.760497893130005 4.847220257461757
C 2.3783176161522643 21.68474451121129 1.9888282309057796
C 3.2226071557470233 20.522114763506895 2.7143026007748934
C 1.5287508795774944 23.68224267096383 2.8162515207409777
C 2.5133031096353826 23.597955609090175 0.4639696071178451
C 2.096555988935661 16.339571904203055 4.892013076607942
C 2.4579880968444687 21.04581773856805 2.784255529119961
C 2.8226898268103526 23.221514144505953 1.7333279341392123
C 3.9594865839826925 17.149777140784323 0.5761350006338819
C 1.3978371634730502 19.08756177439401 0.13299867656449416
C 1.3546888577523402 20.423502754898184 1.2115502533020392
C 3.680453070898185 18.090949997376637 4.943673606330835
C 3.1355575479726685 16.340205395356815 2.950072425412759
C 1.1177766977577763 19.180791887948253 1.9065301377875599
C 1.7442148408165004 21.77321115248436 4.907250999946192
C 3.7405215898733095 20.399260276218847 0.7609637243785199
C 2.8410669544948925 23.822819472789973 1.4753285599051917
C 1.1719205954464833 19.044766634185898 0.5301246999297411
C 3.4474758785099353 17.913827906826185 3.5436357523155824
C 4.033993665908743 22.571316922439514 4.176284658732717
C 0.31498392047827306 23.89412191335878 2.473483109250606
C 1.307143267738864 18.570621149796846 2.5248054369228967
C 2.359453229397567 18.396497350028095 1.6481267253077625
C 0.36271218933300176 16.54866044160576 2.8790302588438714
C 1.4635735055088273 20.921488181282168 4.56299277082484
C 1.0465495470334703 22.789654009369716 1.3449731388669344
C 3.893483483308342 16.44923721338124 3.3764760465691324
C 3.3413389137831673 16.57758366347231 2.2694990092931877
C 3.296967020530261 21.77284139092677 3.740600669927292
C 3.6661532965217747 21.678395414249646 3.8220111403131756
C 0.4417440919137571 16.643413151020894 4.949185524956558
C 2.697140696535446 23.77704361129165 2.0192270115987814
C 3.240225438493452 20.426496937243932 4.042973130371777
C 1.3788109785934384 22.58215676923782 1.7728843209087801
C 1.7445389973501617 19.806603255798098 2.139222984421068
C 2.6919775968553195 22.20084959343467 3.4268167227940074
C 4.826414250156714 16.532253326466915 2.4505556135044007
C 2.7950193915494337 21.194754026602197 0.537906093175598
C 3.138615604333647 23.5621096109147 3.8741640284100503
C 2.217655067441941 19.54712858252164 2.3511912187891957
C 2.476064321915535 20.338821707400353 2.8725071105363145
C 3.946224060205269 22.79334791599876 0.2238218743667164
C 4.8892123672214955 23.312860787682826 2.9680908623961746
C 3.65375278937469 17.584679827330557 1.5810485027649106
C 4.694831181518737 16.63752695016594 1.4331470135837387
C 2.655801275934795 22.887571546003603 0.5958662406909397
C 0.4400212806421716 20.55844625575581 4.947339086393165
C 0.241377921521449 19.387031320827273 2.1956166180861567
C 1.4976998787863363 18.975087597476474 1.0401829568850962
C 2.120226261023686 22.163998170904783 2.7929808158055582
C 2.03170187788487 16.36928580003087 4.473483339046115
C 3.789375904006545 19.607431527741507 2.3800396427637818
C 2.618752869327954 22.37238093386258 4.846099480065285
C 3.915905358924396 22.814341209111536 3.199494296647875
C 3.2764366782238454 20.654407349068897 0.98527401713633
C 2.9392885042423935 16.634747738449644 1.8681540862731905
C 3.5089500036179953 22.1848189831979 2.1311892539927837
C 0.8211891384990232 19.261724363857397 0.8993661915318
C 2.2363773588960827 20.760385488201578 4.522757935953786
C 2.9514416028809536 21.900390415984976 1.0739545921057703
C 2.3310718426524737 18.886497049788513 3.311676826576542
C 1.8424449154925882 17.52983732143834 1.6126026135334164
C 1.7729755415595572 21.65377577152867 4.906073198572235
C 4.505326472126629 16.741405996620703 4.687079296464252
C 0.7411400681593172 17.599926946850992 2.5389000595603286
C 1.4180789038186576 17.60335826041107 1.5213165777928073
C 4.925680981388208 20.206984099609162 4.37219008823103
C 2.86928182469334 18.279980417718416 2.5875534587536047
C 3.0710689928152988 18.167007787400912 1.4682692444224736
C 0.872718964211644 17.77321138941057 4.479851418380393
C 1.6765492934929633 19.574793591193057 2.8611946773634136
C 4.1177985449466945 23.213524511480546 1.87273268467189
C 0.03708935411025793 17.977124072518848 4.531352134497187
C 1.8904895779968982 16.696545781350334 1.917683693015654
C 2.951699756079311 22.3446886204235 2.2910310789788686
C 0.7626352798957886 19.826649025295414 3.386362525094373
C 0.557727839724525 18.935149994131947 1.6468231308762054
C 3.7369736588419222 16.158615044507844 4.865776634906677
C 4.503552433609504 23.289511493484433 0.4006796276712748
C 2.0535067134909313 23.329502005184143 0.7372834629333125
C 3.8330950937563553 16.28344589447738 2.204569740523408
C 3.382290190586623 20.880902400179984 2.3037200978758237
C 4.417324552347842 18.757489766960592 4.473531900926658
C 1.161894944772736 21.374966908309794 3.740477518290287
C 0.5018281711204836 17.337586063045936 3.7848690812697043
C 1.6581355988047406 16.822637599018535 3.5248493314781086
C 4.7066236495557865 16.35529645748834 4.139867741969292
C 2.270223050995168 16.79966776406506 3.7427451724536374
C 4.47500400376661 22.411140121410867 0.6496612323511003
C 2.516375475381965 20.034329572746763 4.655900907796632
C 1.0354368637378215 22.110619608483727 0.036789198515608246
C 1.6844586203816934 17.458262775080986 1.6526833438949076
C 4.515012704526012 23.017380423779358 1.2325318655731976
C 4.376803958393294 16.2709362412355 2.4244329366100943
C 2.2501672011097824 22.517963003737233 2.4809585451823635
C 2.7915760007730355 23.062943152259205 1.1638773849084139
C 3.515190509664665 16.570228525462927 4.1015090512542765
C 3.0085838423669364 21.314227728431263 4.871616668890206
C 0.8980276981829088 23.12032803493513 3.678739669140417
C 0.21969245243823593 17.196885546295796 4.954165725402717
C 3.27350541671487 18.943493116212863 1.5385659538019918
C 0.9242472450913453 18.054984503582013 0.18139419471259632
C 1.3218391303037609 21.853742013951397 2.718358385150404
C 0.9418051871555716 19.963707634261276 3.8091719750743698
C 2.198554458768695 21.581509755774647 3.0987765908264144
C 3.376105869629158 21.290424432576074 1.5804942366572177
C 1.8049192441335926 23.57834284811583 1.591219378604698
C 2.476707353434891 19.02649764281975 4.754235168965256
C 4.259317927641121 21.112274145564015 1.037181172296631
C 4.34787925545073 22.757524620692617 3.1876054542793923
C 0.9431222236966663 37.542031832477974 4.530448862823578
C 3.9276013362389666 30.726105485642165 0.41226389567512933
C 3.6764606706263603 39.20597572023959 1.5014361090085289
C 4.222647750245608 25.720259255409164 0.9823664673197091
C 0.4618193740844956 24.51215253185344 4.071130683464851
C 3.400342346155513 34.919232823302416 1.8765298225644795
C 3.9777313384894324 25.923469406622967 3.1304188819137297
C 1.593494523983195 38.14520172963195 3.9715251415010515
