162
#
C 4.975203599805311 14.771567639168845 2.439552368881726
C 3.468222262047969 12.864958196615634 1.7365316322143038
C 3.0057315876428707 9.830947048925688 4.377080677642836
C 0.9221980290158033 15.07633245855027 4.5070775591061345
C 3.7672997354274615 0.22527093900875528 2.5462856297162335
C 3.7440428479612384 4.492309441152303 1.8485529609632312
C 0.08902301809660951 8.277604322974595 1.8741887304428362
C 1.3980671817850732 10.313840142988045 0.9944316673809028
C 3.447636969839059 20.998173173110292 3.695955383754685
C 0.12953557019758033 22.55161958059117 3.209477012941837
C 3.8069213985533312 17.83941298067046 3.4165288316556683
C 2.6753916417569084 17.393308903927043 3.1438131448208475
C 2.613850021774129 20.24940047588279 1.532267843742876
C 4.233130369662146 22.009960315501573 4.061939500470606
C 0.7806509575370291 20.753870315598697 2.2339891012851236
C 0.24507161891020646 21.74419908186009 2.067091545011019
C 3.5255365706950053 20.37592929079308 2.0821981508392184
C 0.5209752758775532 16.14088416793161 1.6040854353898655
C 4.8096926994959315 23.42566801443098 1.683145209798766
C 0.9059936036660743 22.892616030674276 1.6617969755290511
C 3.1374329025572494 22.655065416212295 1.9004114776505732
C 2.5735093299949927 18.89422301872803 2.588675678635047
C 2.4343786301293417 18.16547178802555 4.795186659065957
C 0.607452947599888 20.464117410145988 3.81136318187657
C 4.050526762248702 19.57312596841089 3.8432078970732646
C 4.629395392559445 22.335516329374578 4.8581738513959625
C 3.8265992747133177 16.754096515079908 3.9872039659476726
C 4.422330607817373 19.674362135989476 4.354940635728363
C 2.8055669912691488 17.397841281555614 0.15581136986648092
C 4.322123112638956 17.043850485072753 0.18849682600151518
C 3.2827216405684334 16.708401564953697 0.4663716924672695
C 3.4653346985501425 19.566475859384262 2.2069750807862514
C 0.5580577403473824 23.911511340460887 1.2585596290651395
C 4.255693789576648 19.799143173577704 2.847419555428873
C 0.018602064911294458 18.623823725602453 4.7322200221814175
C 0.9173425386467082 17.475341966950005 2.6563546539221945
C 4.373556953735192 17.71479437171992 1.881763996462672
C 4.9724226919847405 16.243287505164435 3.840370710805865
C 1.9871379905715725 16.117974932233416 4.336918417982583
C 1.9837004756356706 20.39651964894761 3.334516105849307
C 1.83163938785921 16.920379883224463 2.537793686568732
C 2.3229191147878647 20.94090616870303 1.719926650074104
C 2.986058848277075 16.265155258240714 0.49643794426477206
C 2.009854472463753 18.455678026743648 0.7895383960874702
C 2.6093596194109283 17.787279846656034 4.465373051759601
C 0.10092793274470269 16.92986923395491 0.619316089010874
C 4.931598564423481 22.19959296926951 2.119796990185359
C 2.6806542076157274 19.096500069435944 2.9177130645612914
C 1.8986448796947393 16.491457345844537 3.901039316231671
C 2.119527232498063 20.336177955008854 0.35998460678150435
C 4.152034581735019 17.44914276644584 4.476783804797068
C 2.577201142444446 22.165077510656563 4.1059740338642445
C 3.887013614837065 19.67505561911236 2.010196334303233
C 1.4429606168685432 18.71651858516649 3.057688264787013
C 0.5471341271084895 23.23373051507799 0.2451000651584173
C 2.154127769467953 23.650569631120906 1.6905644562376825
C 0.827295926916865 21.667277016746375 0.7029837452530796
C 2.905499460655831 22.864691072696388 0.24626569211599114
C 0.6493659168596216 17.616779263487494 3.5575397162400484
C 1.2179265154246999 17.239224930482656 4.06931274769041
C 1.9305260557707582 23.16669553346755 1.069963553415067
C 4.682669615311933 16.409940881175874 4.181544778991107
C 1.3914755632387505 16.478629141656555 3.8089697042584665
C 3.6708867622143844 18.305826367035703 2.455140136696703
C 0.29106175963814873 21.005102700152662 3.9450420062428506
C 2.450135295629767 19.851988754233787 1.3631095540044469
C 4.1554363082123045 20.22339606131602 2.4649559725938297
C 2.223994655705014 19.657464498556354 3.5587329227906213
C 0.09325301046869072 19.91997934135747 4.3957902765262356
C 3.0215081394241055 21.205976257697884 4.97496720386679
C 0.1956533319496928 19.083733296442464 2.1210385193884145
C 3.608432671087925 22.909016106057436 1.401299622548231
C 3.032989149380647 19.072751949625236 2.0750020062613554
C 4.551060739549225 16.367232874336374 1.1820826702983593
C 4.629489840782882 23.337548020615543 4.305942048752297
C 1.7071350560914418 21.697064476748405 0.7593298758718536
C 2.973995417009023 16.415467132891457 1.814786198684966
C 4.667904531783773 22.606694019434872 3.981066671971515
C 3.791797465840476 21.36468158244448 1.5336281789513544
C 1.1825431668552149 23.62239386236963 3.8369125733691902
C 1.6555193554008196 16.29245507469412 0.5039917840308572
C 2.434044275235971 18.308196636713163 3.031238931292881
C 2.6635171393839614 18.30181597534505 4.176866088114654
C 2.526207474141952 17.459615507890245 4.057815101716918
C 4.3720857246879 18.116975581931293 2.935882194210196
C 4.485735180984951 18.111675013026527 0.5253075682492175
C 4.440341687054467 17.03144358100846 2.1774156797729125
C 2.953688789939679 17.521457131760865 0.5962558504782284
C 1.9498628204604724 17.007626356361968 1.4763952639503968
C 2.668599182359863 17.856839706070026 2.915702110677063
C 1.3030337236305085 16.35264933570909 2.4975873143148037
C 4.977786562155831 21.938784153141153 0.01255686154258362
C 4.068482311290257 16.69988123716083 4.372884929397818
C 0.7722180542678286 18.904780269595154 0.343314637236114
C 0.5235748744266827 16.74722345050917 1.8423058386989832
C 3.4295252662282327 19.100019615651835 4.447967962265237
C 1.3954267954043402 18.036440886917852 0.9866520909928894
C 1.102135049722412 17.184814977193223 0.6491117259151141
C 3.1722223684858593 17.70671831312655 3.4724430750455197
C 2.1692117178049966 22.47984160170692 4.149273558677139
C 4.985200857063118 21.019805319451976 4.23168404162814
C 3.423273500875302 18.1640882543226 3.4837707274555907
C 0.14534241943404524 18.976970784432662 2.507895133722346
C 1.6867535170858194 18.927622945545018 4.6601342439683755
C 4.071825191836082 22.773394297615187 1.0256256913026796
C 1.3922827594899245 23.075177006682615 3.6300099130667536
C 0.22840347613205914 17.937962158989908 3.1712833684468196
C 2.597278342494787 23.185001045873726 3.956507246455839
C 4.169953009518864 16.500549915150593 3.075964512979983
C 1.3076131962166841 18.457841755305576 4.133857399118929
C 0.02202630071317213 17.769033550534953 0.0515891283561104
C 1.8921125036035835 20.69745122175396 0.7657548292569216
C 0.18886698947939928 17.18008858660568 3.1638905375028905
C 4.268132092218956 18.53503139921029 2.784465918583762
C 1.8992529846409383 21.668574623994793 1.8800513249898976
C 0.35248138599429046 21.899253281533646 1.731761030679337
C 2.2088613770840464 23.733545872812588 1.9483984517092008
C 3.230619532720598 19.5821894500063 4.2650339139033555
C 2.0595343658526573 17.417506441866156 1.0737897237354055
C 0.8358807490287978 20.400454092879194 0.47065070561550737
C 2.144111405177189 20.409469271294668 4.747198679671704
C 4.236727226276635 23.738646222818343 0.9211500594844974
C 0.9053352941615911 19.932886563470756 1.4458095221394307
C 1.1499296781170516 16.085885692341666 3.3948675311698584
C 2.9977224233889093 18.901972018529378 0.14926511274520549
C 1.0442579409604735 16.2947557628064 0.5821907990542285
C 3.1955224487237293 19.311938149924824 0.5033335085540791
C 4.69375436936592 16.69449714637153 2.972381311844217
C 2.5808199494886153 20.940698976647845 2.0701388598559047
C 3.0857007146044433 19.372436822676647 2.765541995159613
C 4.997693075567308 20.840282835351353 0.30876342543094015
C 2.5018324379935812 21.163262586795483 3.4446806720100094
C 1.501621904617883 23.543061950723395 2.58186147532592
C 2.5808258541044897 18.564049143420373 3.1984138697837534
C 1.9269035179075038 18.85247108610905 0.28620054298349296
C 1.7578026109571838 19.462296749168658 1.4708933816708076
C 1.0459094339863766 22.103984525689654 0.6353472641474722
C 3.2801711152232245 17.405546318044237 0.4058866195434768
C 1.120522551922486 18.759789448675505 1.711219388135372
C 4.467634881021023 16.212077291931248 1.4752256424034709
C 3.5532290924595484 16.788465435437566 2.8557835643688008
C 3.9278504100486735 23.560688964685166 4.638864238386454
C 4.753060989124759 21.808060219862814 3.6047317929699862
C 3.1978363956398494 17.71219793454121 3.9160614769341775
C 0.6007376114921137 16.09407132493933 0.04083559337099196
C 4.333335845145529 17.967175259796107 3.346170394132812
C 3.7523753078883377 18.219495206659555 2.1926207652588454
C 4.621584900871555 22.010439903113095 3.54569999491786
C 2.0941571796214413 23.04696545999947 0.36518213101552954
C 3.2846486905178747 19.91460755203427 4.579903801267918
C 4.061564056671392 21.73531801825496 2.6865881713249857
C 3.540391719582136 18.426692456978934 0.6347317674700287
C 4.5046956587597755 17.786788404267895 4.1827102699377425
C 2.8185718824464163 23.93220737893628 0.08794438798265303
C 3.7358750702041874 32.030375011258016 4.2660283029291834
C 3.186135958294548 37.81646492296455 2.7163337444651696
C 1.750915561911649 33.68413441353123 2.6214476327729797
C 4.32127821188884 38.20983107464918 0.7028743418163136
C 3.439908050529236 33.089422763279366 1.063428292038136
C 3.1423620961297383 31.686177708642894 4.681292383381949
C 4.014294759495008 38.67994050603471 4.486532159670239
C 2.6331417382053743 35.566822047267735 3.6576379049386936
