162
#
C 3.7056554022669 1.0907052376181294 3.505872549889888
C 2.0358439592242403 8.492160354134569 0.5235158727828115
C 1.9050907513298487 6.761376439184723 1.233946961408866
C 0.2604799593783641 7.418587382409353 1.7936295123957406
C 0.5150431962680552 15.384009284907188 4.351841594013225
C 3.724601983472513 13.944013738065333 4.495777357017373
C 1.74536046787923 13.018217554577612 0.9762639267832862
C 0.5446768487968612 6.151199194823379 0.7191551624129838
C 3.84217429436314 21.90282096971393 4.190393607531437
C 0.4285183140284693 19.396764471473727 2.241037973237348
C 3.0273596128722806 17.7519579506393 3.2916666011950673
C 0.5767375694180249 22.125364038456524 0.3240090129497719
C 0.7524295062499875 22.855848837059035 3.7499940584904246
C 2.4090620983472784 18.23285524735258 1.0199215057465671
C 4.672622524048259 19.354948888564373 0.7379855016846987
C 2.380062791645288 16.068275100034967 3.709336602571543
C 3.588596888864974 20.532994029758907 4.9800929121803685
C 2.5917239362174675 22.97271184802468 0.7498328304455004
C 0.5089310090654797 17.199305204579822 3.1876303649586895
C 3.1698921693985325 21.96577827436533 1.9669455701712817
C 1.949422164355597 20.52909667656869 0.7246415936256778
C 4.747936413419467 22.347924187407123 4.173758332631805
C 3.5082896076894965 18.85771634567171 4.389888574703181
C 2.1992943206752633 16.4880748275302 4.596689360079635
C 0.3748727318163081 16.638589291343973 1.3878005931945876
C 1.5057461349609929 16.995008688920745 1.1731683129410602
C 4.2163860348029445 21.56176486606681 3.019132449756624
C 4.067386720433713 18.450487536907374 4.124494707988183
C 0.7508895589701692 20.55420074084154 3.8675597683835288
C 0.8548929978989761 21.85001060935162 1.9736566581629238
C 3.973558360456397 21.852104427292943 2.561077136291493
C 2.931104143950534 18.70921256313551 2.6303085440343126
C 4.611299830214017 18.272168214770634 2.361776325356267
C 4.9225616229743165 22.395977191056055 3.0232189638326963
C 1.5294854808057385 23.25826819467022 2.9034146289247404
C 1.859437528818746 22.42792850647149 1.8813243644880844
C 3.1640457690813832 17.9615227754314 3.035482796547408
C 3.4992751546034766 21.4357420159945 3.3898482114388377
C 4.1411004234327 21.927689095852635 1.8904874885906837
C 3.150286237777447 20.594622432205306 2.06033382919774
C 3.5980837883669636 22.608535163058605 4.782910608063952
C 0.41748677520217103 20.95865716477661 4.4434841178395175
C 2.198048475772103 20.7972462376025 3.0689533611210456
C 0.17634192050363595 19.617984372440695 4.827312166045839
C 1.4434140616506101 16.575569201982617 1.6814338576787962
C 0.31791904567735174 19.24599406888745 0.2251014720643718
C 3.009245364579534 16.106332571755843 1.2429954925131255
C 0.7073810059849489 16.431998854934243 0.8065423043985659
C 2.1683788111522837 18.234653568377986 0.5224896280145308
C 3.107067070784243 18.176584636138838 2.9003893507001095
C 2.2586745172542004 19.407593870673686 3.4065845080737303
C 4.10234968495325 18.055501246726337 1.042302702113111
C 0.6531836741522207 19.81364831484023 0.7536201993554115
C 0.4610117641614725 17.855999078692587 0.6078215312069324
C 1.3925274323991559 20.277636663693517 4.822123855784407
C 3.948578545915062 21.60356644214255 1.5347127205713913
C 3.930735256807392 16.09923386204669 0.898949998559771
C 4.485316753651763 16.609938411442023 0.15205353047908765
C 3.4211228720557947 18.4766259117229 0.5574153607158144
C 3.6408768061780084 17.547347093995732 3.7330623375442644
C 4.793927344596312 19.469793902928267 4.352850955245008
C 4.750596930298348 18.212037832685226 4.807016960404765
C 4.285665089866482 21.26537768137907 0.7788139144373818
C 2.41963664528682 19.078401155225592 3.0743405500662204
C 0.07336052542421756 21.818833382783463 1.4500556840799428
C 0.8656041668109626 22.598537503865742 2.8063851457815763
C 2.589916022961715 19.779699253612527 3.095145858053774
C 2.37906326463699 18.59553243056553 4.759451669679631
C 2.0248521435439093 18.31781424723563 1.0238827059316051
C 1.4822517013734875 19.008361939351264 0.8514983490163458
C 2.757513718288609 21.633307489803137 3.184849685249832
C 4.581651071520564 23.300376768179184 4.370035412738847
C 3.933515559744924 22.16981458810613 3.273850189114014
C 0.4205259238569814 23.556878997592797 1.4309568733738671
C 4.852460870246533 20.369442972783954 1.899671948054598
C 3.773603504359305 17.930926751500206 3.0908489230582195
C 3.1706712861119946 19.593232169946816 2.7536665267930087
C 3.009553980129065 23.725254231804673 1.5860787479641698
C 0.3854085755341946 21.640597696596714 4.947296412257316
C 4.977611961434158 16.05186543270215 3.4635346333827934
C 0.4437261087890082 20.2037690478924 2.4187927146797277
C 1.6998321322663172 22.88309527770248 2.7110285896063937
C 4.181538585245505 20.81027398774105 0.21967958199250348
C 4.433241027965926 23.99128575165375 4.307577577309129
C 2.9812360044556536 23.16179311667996 4.846651349214038
C 2.68269088048333 23.047749401746685 1.6686541780013142
C 4.9160543075718035 18.78170900631698 0.9375163986194329
C 0.07821806470223902 22.89504290472766 4.875815724717878
C 4.59422444728882 19.719829410263365 2.2924649117230005
C 0.7936917319385933 18.124328431562862 0.6187846109237155
C 2.975752234880032 23.878214660630753 4.044618289768655
C 2.562834447001367 22.816059178618048 2.5882590875901634
C 3.7070015825939477 23.728739446779077 2.8375006947618644
C 0.3110370006836133 16.473324987235234 2.342646144368285
C 3.0442192386715563 21.363982809673022 2.0131459904272035
C 0.6206541061184295 18.940889554775794 4.059424009049296
C 1.8560983512475508 22.973350236927576 2.997056796854842
C 2.352601141018959 19.28864097319822 0.48866417767674364
C 4.517874160117431 21.939866087639626 0.20256420198372982
C 0.07459381330569004 22.87279791957678 4.139335867158262
C 3.6349335754339736 23.2381611397144 4.111658844545646
C 4.939066236762418 18.177667052881365 2.4893636153101992
C 2.3933802928901198 16.85605573036673 4.808736777820587
C 2.464485032874844 17.864029972366026 3.783059607403268
C 2.9153257791001024 19.596073544251006 4.099833829227429
C 2.5565451894756657 17.455570693225525 4.765787785551234
C 0.3385241792203819 23.81371782487831 4.596317949055254
C 2.7496910469872016 18.284578392390436 0.7837796795547719
C 2.24458098643866 23.0682932242332 2.9958595902100384
C 0.82185190120732 22.840630793043008 2.6755418042555466
C 3.7885376252846164 17.030676253935095 3.8002545242138726
C 2.4936096586542096 17.356598772737584 3.132851327030148
C 4.574900062022408 17.7145435469862 2.394435177784233
C 0.2765759479405361 23.978608262016827 1.614149461850749
C 3.0954392378750057 23.80935598307342 4.926098664082447
C 2.230706799654149 20.227265912449116 2.8413466812514248
C 0.8895683003976984 20.51566348340958 4.0912747542158945
C 3.084631372983966 19.579388412216247 4.3524211587951305
C 3.349337985764075 20.05267314603524 4.875378316055677
C 3.7432862516628367 16.80580609092954 0.5460489070376989
C 2.7160086454571806 18.073317022423467 0.3998944092700635
C 4.550814681743297 20.529546501480077 1.3152874235672214
C 0.13171102707198568 17.85204530112123 3.210702600350638
C 3.4007048562255933 18.431247624670203 0.4274767996590101
C 2.872587820662078 18.34714231010077 1.4191371860362367
C 1.5182088360531265 17.160341663622294 2.1772810949962116
C 3.623601049275937 23.248414392777 1.2129251118829636
C 3.9150039466504265 19.238197275462394 3.270384130535844
C 0.12149468807268637 17.342288634307636 0.8083979882982417
C 2.157614605509448 22.266607170872383 1.7905910199136632
C 1.1321303309234332 23.4526560004231 2.7063129415613174
C 2.233765514736132 19.92462926970496 1.6693640600875632
C 3.5916530992767832 16.9500592193818 1.7913261778775151
C 3.8895270532480737 23.430969726981527 1.6345781405278563
C 1.6566745959929858 18.81037798107603 1.2926089902241107
C 0.46373432371354717 23.273789354831543 2.0473979917004037
C 2.8809034879579656 16.71026247849822 3.568481525582058
C 0.009991440689177677 18.20530924229237 4.971770452501312
C 2.613830275715039 18.543302543955136 2.6859369803186546
C 0.24196431427773946 19.7637876213726 2.664471067245145
C 2.193752038513892 18.46402690961471 4.422773360914901
C 2.873239993010091 17.214343417119295 0.46149164599292913
C 2.723707952528244 17.377495215132797 3.8490006872458986
C 3.355817197314151 17.177921143526696 2.488589135182349
C 1.8450889832384798 17.47463149121548 4.6880211641371945
C 4.613687407848989 16.192970360709513 3.6426027401865175
C 0.3721085458646489 16.413929179610392 2.414520350039826
C 1.190990561738493 18.209823280348914 4.816275461981917
C 2.277138341632297 18.996569366578335 2.1633697563908303
C 3.44044722196176 22.831817133726368 2.8504132039671672
C 4.112542139260192 20.369593140112514 2.5600161891165185
C 0.3285558312646808 17.35126112291799 0.39125521633369187
C 0.48929280481926185 23.762051546068008 4.786788354347303
C 4.118678143760681 18.409050734859164 1.253905330466551
C 2.3070625669887384 36.00405813831654 1.7635198743058438
C 1.056715997825689 39.81437325636007 4.838278867920167
C 1.2494017537141051 28.530418787796684 2.922298104826824
C 3.8897794058891924 25.771385262847183 2.4882006514933854
C 0.5838829076921465 30.871070346781572 2.104418394056697
C 3.036391156612028 34.423000266121385 4.979738014085989
C 1.6391611362056147 28.33261146854425 2.790401561911367
C 2.4647759952780053 31.960277648640822 2.76218820150685
