324
#
C 0.5113168983377079 11.280329427881316 3.88018430998492
C 2.094474718947697 6.677191307810884 1.1461584038524042
C 4.673533467134681 12.665127871001939 0.4204186859315126
C 1.0060477268523624 10.031312917443348 1.4199244263218902
C 0.64490126677674 3.08691101590309 2.325287592734716
C 2.3585389283186813 5.441886099515386 2.661069619842357
C 2.0103214699093868 12.099908503728305 2.5841478297259854
C 1.1979783983428944 12.212736170695761 3.2854281898869835
C 2.921857983839327 19.392394279281074 2.229603595692115
C 3.7443913231905466 22.20616012575644 4.759840287666086
C 4.823221614670969 25.358655291741545 0.12539137461571656
C 1.5079372063345866 24.460364062234934 1.516043727025145
C 1.3949499411383652 21.96591809583049 4.6031399564662285
C 4.503075629456618 20.15205739349668 4.470925536656239
C 1.5216759370608877 25.24446995569486 2.563470850216154
C 4.892738772899405 24.128493653177404 3.6979876264971456
C 0.9412058297350784 24.531773204685614 3.5125560469448858
C 2.795832060381632 20.99994385988184 0.8919480515140399
C 1.8298712390906726 19.0085210688233 1.6386944720427938
C 2.7579754250610016 21.242628304336545 3.244750689368003
C 2.62471596337914 18.34977168883661 1.9747360770777802
C 0.5934107223391134 17.759207220308824 0.3754032176701101
C 3.659445218055248 18.440161672718535 2.150196719339348
C 1.712621621688365 21.12404742236203 3.267425117601928
C 4.652394609820275 21.270698641685225 1.018566423794614
C 2.529422881376213 19.28817824795859 0.265673609633759
C 0.8467186985368521 17.22071250942066 1.249150355189483
C 1.2175713110218775 22.903798658058935 0.8351185783961842
C 4.985365575693285 19.51286343773701 4.983018038649736
C 3.791095564405083 15.410311449264176 3.571863840830124
C 3.7549684650462245 24.16709006015536 4.186598853822525
C 2.176923981321813 16.160166751691232 0.117462916393098
C 0.6241661556494983 14.77016763952232 4.40782451583782
C 0.1340657074052773 18.39287368387866 2.064532802103722
C 1.646357265099715 20.83143256045033 2.3062475417910693
C 4.441021345767337 22.849597010325983 0.31755671238433236
C 3.2715205978073407 21.610201120312812 1.4740686521570234
C 0.33367938638780165 14.519265267649486 2.6774913093239423
C 1.3825322233713315 15.634248074814103 4.786633676985637
C 1.5295066606804548 23.600162620231615 3.1805923554121254
C 0.8734803687156466 22.858247184742556 4.682395363723629
C 3.9849677868651634 21.841626416721002 3.681191628916947
C 3.9515141304901205 16.1415884065215 4.346101132333714
C 1.037422106407007 20.769300614066278 4.967566990981994
C 0.47853362462968313 19.461339738408984 2.660311384989777
C 3.4005135479929525 19.550347831199787 4.066592066690127
C 1.7946350051474766 15.225713928135301 0.8117526476676356
C 0.6101026167331265 15.227393762609662 3.3290446008533223
C 4.866877305754841 22.633009724405785 2.123519089424251
C 1.0516903950914493 17.030550534545213 3.9907463975913857
C 3.7415400316569354 19.46059300557237 2.8221674559269165
C 4.747111970465435 19.493592869672277 3.2319299562991137
C 0.8633865644141248 23.701309544163387 1.1946744925780979
C 4.3513247522458895 19.204396407523006 4.243599351328112
C 4.080894429800767 15.553766891945374 1.68722453497479
C 1.9153331266890496 20.134532908410257 4.887123328103163
C 2.7524378385453185 20.202710824603937 0.35982579111511614
C 0.9800634097727249 19.672360878026204 4.9759747146311195
C 4.894261682037316 15.630029974391368 4.407053852021892
C 3.1729521112483203 20.292726890209597 2.668574093863806
C 2.1992091245909253 18.393017947134915 4.821259358169605
C 3.206125643176388 25.27800070755574 3.544697502111703
C 1.3012144627023987 23.68450172915393 0.03528024273288308
C 1.1879612203593528 21.987613248524653 0.6119812001957017
C 2.6465189860505154 20.787394272228017 4.574623997870021
C 2.2864266549063865 22.730015340184224 3.2205934319993035
C 4.237233798058087 17.6896932767132 3.5574241481076667
C 1.7846599678447819 21.168848252231687 0.5310675944567107
C 4.340506730429171 23.55453818906942 2.0774187477872132
C 0.278898519343024 21.97431297007021 1.2889779532697088
C 0.9544667253979668 20.37231878240154 0.821146548874423
C 4.653281229118659 23.241689236394485 3.0314981271503103
C 1.9975602535121189 22.699210153986503 1.3845882705206225
C 4.891179891195504 15.89999708260066 3.285521447665703
C 3.2681321210242658 23.064715580274633 2.906154076259629
C 0.5091070670887922 22.019457124949277 2.8782130220194184
C 0.553107767823565 24.027164863296537 4.463399777607393
C 0.3632444261667504 16.73322449228745 4.757678181306756
C 3.989677457084887 19.90696902001695 1.988707531442302
C 4.6461744134507255 14.792208102259714 3.7457722515106573
C 2.5115741082294543 24.756287638708773 1.6499864921010383
C 2.7266037725391787 14.72154857787192 0.7516378688444088
C 2.188672395230027 23.684242989608315 1.235903904626344
C 4.5832176776966715 21.556276836661077 4.364169122279854
C 0.6581778227420045 16.66822874987732 3.1464781008954645
C 1.7846903614031784 15.171349218155823 3.924952551566263
C 3.9925970344725044 18.224244503064412 4.293830672919559
C 1.2036778171797864 14.158657347655016 3.4188193468814476
C 0.9907970600395424 19.35806258973526 1.183568964213225
C 3.11266721899068 20.461799701053074 3.706321973001467
C 2.6515964638107365 18.96254933946263 3.9930918063646
C 0.6817874836984638 22.97438617010301 2.6716329799706964
C 3.6589544353089005 16.163860445578145 2.5191762242185964
C 2.3900915084302397 22.04246095257788 0.7830538667765611
C 3.151591534585251 21.978807535534003 2.461957347995274
C 3.0190406925315285 22.61468832439671 1.3958994986824589
C 0.7241643430916461 22.117829322021798 3.9112690891062147
C 3.939350210104659 23.88638946672101 2.991608920167762
C 4.693084470943106 16.862266413873826 3.959281535876427
C 2.7989300555329635 17.164647174584726 3.782478060013409
C 2.133539358121237 19.003020809560873 2.6214333523701843
C 0.39062619781659713 22.446658553973084 0.5021574369118835
C 2.077214975132385 25.20816454406181 4.237811919322357
C 2.917877848640332 23.555806354861456 2.044039373404192
C 0.07427331878994176 19.0111595465259 1.3667431222049322
C 3.583036111530969 24.115732082125717 1.489562303478463
C 4.025361429652814 16.982740308546138 2.0407836249086957
C 2.640093337324225 14.09502749524503 3.902080398380421
C 2.985583453500625 24.786974482803085 2.6299766570612406
C 0.21840236389085457 20.42033221145926 0.1907229347500621
C 0.7520174531971902 15.904161572704679 2.546018060728924
C 4.9628365983961 22.54154039699669 4.467107762977951
C 0.9478514083441147 24.53726284784698 0.510564749147519
C 1.297375609654555 21.810154769794508 2.3540143836028027
C 2.3113727364794165 18.646390285159455 0.9940777543823738
C 1.7578919053904696 16.260429601014664 4.019695390845541
C 3.988898927388736 18.05991737799432 0.3576664618585327
C 0.09699158798360258 20.408547552695307 2.6617133294819206
C 1.3844717374985156 25.29425259201098 0.9746110141899278
C 4.7380151941262705 15.580792897786848 0.8606966730947921
C 4.889936041238805 20.421387976486372 3.529426423838661
C 2.6644962171902806 21.03135362480462 2.151956679648847
C 0.25849860781301903 17.53554857598918 3.5070805160326346
C 3.596218513993595 20.83377056582327 4.642648387675016
C 4.5320244545468205 19.115264639152116 2.275742954511702
C 2.272073481239871 20.421920086507537 2.9442557399569544
C 0.09069338272799443 18.68813546264017 3.9469432152264625
C 3.812464527057677 23.956900358263752 0.2858293698913712
C 4.1587435933603025 18.744088802340148 1.2049826566501844
C 3.608492941474544 21.47888251583754 0.5274269831208802
C 2.0996723435387183 20.421317731377776 3.868525855616374
C 4.4780627113647915 15.18518228954196 2.5853478468843987
C 3.8674517351389586 17.149085680467177 0.6409312415083109
C 0.8013062748344906 21.08667308645879 2.915213887681476
C 4.610868896344752 21.931234813061444 0.27661202643960037
C 2.1122923286670865 16.777341992115172 1.0642524359737688
C 3.1918507503288356 20.172069556696737 1.5056673333879576
C 0.6983570082752029 14.896596483970335 0.5940828377783495
C 2.581369571480023 16.008579714720298 2.3651808212621814
C 3.117056507320849 22.297150520988687 3.572176669242983
C 0.28476021448478495 20.708470190534804 4.296748226770533
C 3.0329799594028994 17.79252922474495 4.834048666577183
C 4.483589484228519 20.785136423817598 2.0114676695827636
C 1.9149087020124331 20.284256503483217 0.7672913116581693
C 2.7644859784553892 24.403586056867574 4.034960087813402
C 4.610368724412457 14.4767166416118 1.3803979337398564
C 1.8470524605041418 14.374811505146777 4.9926373174901695
C 2.8400525025368193 23.965714397467792 3.1366354725959793
C 4.5035923386858006 18.551783185503293 3.1234863003364626
C 1.2357755207228118 20.206373440324874 4.21295146601108
C 3.724140945105614 18.850063269403584 3.5465264204246068
C 1.190476022322339 17.570044204338835 3.0562074989432593
C 3.083802749718758 15.532475698109149 1.3765871771286735
C 2.4688340845267094 21.67194185129259 4.9238764748485515
C 3.9784758651469296 25.736319005059205 4.135452913202166
C 1.4235340509443712 27.446390445747944 2.4167430444704183
C 1.5449160276051215 33.49736608915123 1.1182731001243256
C 3.827355842094673 25.85436177732308 0.2001298015204706
C 0.3018305320419302 33.30395896900419 0.442333076164501
C 1.64525114082848 25.942069108789116 0.2596008231921629
C 0.9593583512063238 27.929804286756944 3.764353579739129
C 0.7960166472417824 33.52201131505626 1.90066191613204
C 4.796643174313474 10.512543263588237 0.9955524898323114
C 2.182408165546908 10.118095554014765 2.4120086612008587
C 3.5061660061326307 13.247552219856674 4.461137441538682
C 4.210628293057556 2.043181138033921 2.554212007423539
C 4.943295047077136 6.221823262783083 1.8118859664243534
C 0.3694313721620819 1.3870801519053535 2.4696794026776203
C 4.405014506380395 0.6411178031626683 1.6268713854239378
C 4.05789187344721 6.310548732330113 3.0190642359605175
C 2.322806149988348 17.742179833922997 2.9682766084998975
C 3.307339815843135 16.63313894646692 1.4002144421491478
C 1.7901406462003344 21.099050903727186 4.499573418185678
C 2.191989471974317 21.854192834997104 2.771670933993907
C 4.682168002536401 24.36455293004182 4.964057004086134
C 0.48166730221881154 15.924406824169107 0.28058475889365064
C 0.23611966687601377 20.66901569482035 1.411686320163839
C 3.212796795232101 18.96384008567782 1.4291805073709716
C 0.2661735158563775 23.856349857900536 2.2045511423215505
C 3.5699029459643365 14.453813867014725 1.7491029491989032
C 1.957839906707504 16.814786398012004 3.0255431512011044
C 4.1624706846424475 19.10510255667519 0.21016106321706832
C 4.3077321913850515 16.903487165558143 2.9770632513979662
C 1.5098089151483904 20.095574932505162 1.6078319587329157
C 3.650353055926127 21.28231546612417 3.0256270004307355
C 2.2401228699734355 17.240708454292534 2.049887083266241
C 4.973473035577872 19.86636755930766 1.8788232178806585
C 3.960440508811644 20.728667477761544 1.2906321484095282
C 0.07346838500028702 16.996230871419105 0.713017262689098
C 0.9772740365499728 18.731347050012154 4.72826114152343
C 0.5394998835827739 18.83903679523027 0.5652240634057698
C 2.483576573764313 19.568055321240916 1.1792934283614234
C 4.0988087287542045 24.8535638664426 3.3858743416400445
C 2.400696054300715 20.121956085576038 2.0245784803130866
C 4.568587809234942 23.432260981744257 4.488469804465206
C 4.651834137222459 21.485159706434526 2.7883907598444724
C 2.107648079428499 21.855993732953518 3.8172601296649913
C 2.800256192809414 15.759124029996915 3.443903487415825
C 4.87712997248732 16.39939825871315 2.354555461390963
C 2.6126596432798235 23.020516337687063 0.5955682556843636
C 1.8312443306986306 22.78153037465817 0.014038268543144883
C 1.339498132279258 17.84153597367481 4.675647064961229
C 1.235755711526342 16.762584360928575 2.0889933949473947
C 3.6675373465217804 17.206942971042032 4.414118373188104
C 4.554747658870578 17.39619598274246 4.910447148000702
C 2.8342625631547262 17.6856181134744 1.083683507703378
C 3.8394776228657252 22.724318876156364 2.0109280420031985
C 1.6717860788723746 24.089319785727056 4.141686229887452
C 2.8932852727808145 18.543781560969165 2.9190845436630135
C 1.1223890059053814 24.33963168896075 2.4634270240008163
C 2.9278425607678606 24.239403844168006 0.7704690152602087
C 3.179193738252319 14.305031272244365 4.958000541266006
C 2.3337835922488703 14.749688201768265 1.7307281430955093
C 2.123277832841295 24.118695928846808 2.4269385530913166
C 3.5359594878535163 25.267725241785737 1.7718239263755975
C 4.053427336026753 19.91553703153318 3.6006249390703937
C 2.157010760777259 24.717616137497085 3.2875037430995357
C 3.751550063193215 15.242141861961251 4.660475196490385
C 0.4353047132516952 16.365030789569367 1.522383942392776
C 1.9753714130953364 20.94352432712792 1.4281548431164734
C 1.3114096853826944 16.25726916328223 0.7010547827623487
C 4.097538046912969 22.357228013423533 2.8473906322632905
C 3.230973628713527 15.862298133971967 0.45570016569402727
C 0.809944313674535 16.000373697890122 4.031050610670023
C 0.4647775472067339 18.395186851993007 2.9743007122704648
C 0.14593181509353295 24.73245526659829 2.8387042496539805
C 2.91568867798693 16.921542156491967 0.41013938391612426
C 3.1738865709988255 17.521676509306516 2.040837216569757
C 4.658748332608447 14.853087737425364 0.11711219201034867
C 3.7554196773594057 14.940654912977134 0.8041515929361318
C 3.2943780812535737 18.815657117928115 4.691049669490039
C 2.3498772821425513 23.75907919406328 4.925518966400907
C 2.7472134440522846 23.361173630909505 4.015921879201154
C 1.487307241079345 19.74353982111448 2.5639133155559297
C 3.79913160040118 23.06620080219316 3.8405497432554787
C 3.6574502765543686 20.490301195268184 0.49787388233057883
C 3.1120266935169507 18.143377940427882 3.9076210806153804
C 1.0905056644513091 21.29609887987089 1.5388355212644487
C 0.7942907142554241 18.176421010523292 1.3726077915094748
C 1.9341049494262879 19.550826283945504 3.4847470070322175
C 1.2686843494295155 15.516465052441855 1.6983137838618299
C 1.2286833985574204 18.947618986267987 3.0348593797694736
C 4.401192501181623 16.476996268402964 1.2098426883392213
C 4.422262968042325 17.797651470792104 2.443190521341996
C 4.095078061672584 20.88788625829012 3.821627429220091
C 0.4001853751590013 17.727857607953286 4.463576291782874
C 2.9527301945295092 16.91180146789581 2.8238936727651605
C 1.69175438024562 19.331585773396995 0.5556581911745246
C 0.6247413121019709 23.225968860824693 3.662889337506527
C 0.9807239983509468 18.923055430105784 2.0809882806579436
C 4.313455743736766 24.55854778075043 2.179467783149877
C 3.6093023889767073 19.85872363429525 4.864343639737881
C 1.0171355887893063 19.148337141989447 3.91876247814026
C 3.465917027074507 17.67534173421781 3.0104793922734134
C 4.881062827811074 18.515007831397725 4.871954038747655
C 0.275435397422255 23.57613768379012 0.4087868580978012
C 3.5768283824250817 20.961481695249514 2.1237360036303605
C 1.4766163175543765 23.398431623437517 2.025861160896665
C 0.18538262645826717 21.378150287431495 3.6093657852893912
C 0.926739371306982 20.13854448216861 3.292818277730263
C 2.2445960490436083 17.10165264054308 4.620519293893237
C 4.179263218128076 19.764768792889484 1.0295007853529348
C 1.3701703769603533 16.86430333059474 4.931387054739077
C 0.9445039294036617 22.544788561031233 1.7785597164948188
C 2.6992757894918418 22.435610047251966 4.457109237526015
C 1.9557359299141592 24.62797272027627 0.33685488793018814
C 4.110923209176589 22.167371093415746 1.1638193186644044
C 3.1677141020634823 21.511164444849964 4.149446608747235
C 4.61389582313432 24.005410933140226 1.2246679145395527
C 0.4708292818268482 17.56972672668781 2.4122159401039047
C 0.177656126999043 15.286895406004293 1.8612317944293013
C 1.6787254403943856 22.868285614563934 4.0521339396209655
C 3.178041634010036 15.14027102705276 2.535538691493086
C 2.1061308396930505 17.65403401854647 0.4136330420086958
C 3.3596583260097006 24.94042332355736 4.831886197497517
C 3.5457421458365577 16.488029334870532 3.5172541565601607
C 1.3341242674464393 14.773141590575394 2.4899955157134936
C 1.3870754628337791 22.459266710084407 3.1832361957122464
C 2.5912362558193456 19.79105948331628 4.371309177610417
C 4.134429890419064 20.456190289478073 2.8309493066633844
C 2.293599688391793 21.841249849594497 1.706465357381812
C 1.7584879181746165 17.695001624899156 1.3175883745578787
C 1.0316133054587502 21.092301319330957 3.8948451621550566
C 0.08463027930908062 19.801028653876283 0.8891472515894854
C 3.823560545824313 23.18117276737198 0.9754202324319413
C 1.937615030911419 17.63043972932736 3.8960166007972856
C 2.5359487225874577 15.285584417528918 4.534071696776455
C 2.4829852616388046 22.656506149708505 2.297438273189094
C 0.5843355225968517 21.23459105542659 0.7033940160733135
C 1.5756031346162016 18.081776566855872 2.2401376967166713
C 2.8687263167019377 19.594465442896478 3.267455231114324
C 0.8337382281677247 20.32532039380394 2.1451731560354514
C 4.199796409745621 21.732486883351005 1.9956613259407245
C 4.871320078364883 17.35538325198957 1.6027581797452533
C 0.9208473558859649 25.433977521585852 4.790338341869875
C 3.4126908054759717 23.15451327697451 4.866902955610262
C 4.850215351565824 18.169759555698437 0.8669033417119776
C 2.2507864991209883 14.740379879794524 2.8670437969998797
C 0.3430205147406041 21.442150359803495 2.1204110746628877
C 1.7019289728690472 15.683802045739863 2.909629480019685
C 4.449215194750487 20.96203824920205 0.10391551111499525
C 1.948161331176119 18.527829219866216 3.480975104353658
C 3.8991670534462575 17.7494830740626 1.394105671015019
C 3.363392172989398 19.47973868985761 0.6704571202215103
C 4.809052157899527 22.376680389070593 3.4934083966117933
C 3.1662103576066745 18.499378603635993 0.5968447739205378
C 4.90106948663206 22.947368364378114 1.1817574896554082
C 4.1064512835217615 24.849301858222184 0.8395054377681679
C 0.9947902255205524 18.11453820754643 3.8201423929803617
C 0.48882411748359966 21.64521450561526 4.787825964242305
C 0.3361472575719385 19.76883343866199 4.077015657066824
C 2.982819536428105 16.327883770080515 4.475641215100085
C 1.3915649154137564 18.32968807043513 0.615597066418538
C 1.7659238976486846 19.280759681185238 4.511829277970904
C 2.8212505221674764 25.29624975885397 0.7511087303871946
C 4.541684657237616 16.299583304320937 0.14548886294398222
C 2.764717759547872 25.786274432620427 2.0499874187419915
C 1.9162863885875092 35.211392167905025 3.2705215254960898
C 0.5008084755643256 24.76418604661275 1.5992936126234403
C 0.08865270880102205 25.233055455603587 3.9467762331841554
C 2.7810560631586054 34.407805088518515 3.4979991323518
C 2.3436092781774116 25.942913826322307 3.1419453118727754
C 4.844753807016365 32.71949447232169 4.232441220522964
C 0.8935342897711364 32.06289608013087 1.5698749428369498
