162
#
C 1.2708048478302192 3.51032131070382 0.21963748242010103
C 0.01777682155219007 12.664872662295227 1.661016926334048
C 1.0592852233787338 15.24225023610212 4.079607765481975
C 3.5471374995823752 4.045793574921582 3.8767284532276256
C 4.691229712804744 11.955030060788545 2.7665586144069128
C 4.2407265492639095 12.69177819787912 0.4520328797964748
C 3.523564389459675 8.972988845726581 2.995072040141317
C 0.39659147802852746 11.90398222426958 0.42551535218800257
C 3.4979174384650378 22.23741556865943 2.7173965682935703
C 4.214194819737282 17.966389213633246 0.7874060089727425
C 4.862510604324783 19.794365658170292 2.269958909601761
C 3.208292342698738 19.9998125044814 1.8037342282357631
C 1.7785136803016677 23.317694264590823 0.9092450985102501
C 1.1919652303018105 19.82322397774617 1.7619052567088413
C 1.4739015575662546 24.040997212376844 2.5502663900356084
C 2.8164855608601673 23.18614039538387 4.47582027821952
C 1.8419877141051093 20.265462340662086 3.829514984967466
C 0.010929531830228822 18.29839610927698 1.1279520784398267
C 1.2384215185080438 17.963495970743846 3.839634761270606
C 2.21050053731028 22.73884489524881 3.674537163871033
C 3.7300394881850965 20.394082978669502 4.969203994965778
C 3.3488563203109796 20.103196580922592 0.6418364078960126
C 3.618775055403334 17.169704400158516 1.7949823544800387
C 3.9453487539494962 21.303764328703476 3.183201642858608
C 3.0843488207387533 18.721893084836793 1.7740252129973721
C 2.4316365452200746 16.005398505874663 3.925867726701739
C 2.219678476262315 17.13377626098661 1.2342313635802045
C 1.3203753614755174 16.70992293112577 0.09660041809134956
C 1.4562908350056782 21.012845237231986 2.9479801258108926
C 4.16674317366123 22.567965368984847 2.644473790251309
C 2.125361720002667 22.49682978945942 3.6087772489939933
C 1.868047351515273 16.579285857397085 2.3348063651051785
C 3.442028573936557 17.41659453309015 0.4256206101329635
C 4.59619256252627 21.535699247422095 3.464927048622629
C 2.1721215592421954 17.57404043088367 0.5403746096346612
C 1.1214017912876633 20.72441104769642 3.8917945647955667
C 3.7703457440619594 19.9416582457816 3.5993184124903523
C 0.1846738682869925 23.563261474346092 4.558448882011508
C 2.5628761614890534 16.71008681965299 4.245052616328516
C 3.508397893142923 16.32788408107012 4.051724993503931
C 1.5702582723535135 23.266493431394533 0.40454196860508496
C 0.847163380155375 16.901281584508542 1.7942432810951898
C 0.6684909026602261 22.854565874147706 1.6276171778857256
C 1.0826506260482915 23.837471409769673 4.684123090085126
C 1.5742952517976894 20.094012313966697 1.9480556316034603
C 3.0048582116741205 20.66991508241232 3.4975890388022712
C 1.4435768031455165 18.400030917644273 4.68905658327899
C 4.066081568826611 19.636185951508548 2.804252844892364
C 0.5043842050398275 21.99869568046686 4.4054970201103725
C 2.840197368125871 21.224999779681777 3.995181104148742
C 4.540777042829376 16.793887867742217 4.250808006180369
C 1.6406150619536657 22.977672009038674 3.6157642502323895
C 3.516558635608479 21.067314448541598 4.812844500215801
C 4.602512621663108 19.85314667078891 2.6369050455207157
C 2.45729404259352 18.39939775319368 1.7040171307585539
C 0.9656700284320929 23.069515368768894 3.107994192401648
C 2.4431687099050174 23.075948861416553 3.278158431748833
C 3.6832465179774125 17.005763964751143 3.2953500794147104
C 3.5928666552492663 16.615614673213827 0.716600099444931
C 4.3193802279868105 23.38391276810498 4.036199023934073
C 3.606396497446619 19.992093228685743 1.035119424659342
C 1.0166635305590033 23.947740604616506 1.9979826275986656
C 3.293757792757858 19.326105048960898 0.3431026708881887
C 2.1386245568635176 17.404334035277696 4.518618451091289
C 4.430598031573165 16.34766541710484 2.7515732306318403
C 0.6007504834827143 18.506447330746138 4.389925047639774
C 3.283299981241747 22.250556269483468 0.5675307178434907
C 1.1925938079250096 18.97793654936789 1.6949783485740348
C 1.4009611235854063 23.72782923709068 3.101770906914478
C 2.4246608510470233 19.716491623038767 2.933323641667286
C 0.6729278587367599 22.63285495614832 4.689974376504508
C 2.03369299484466 16.496200412394753 3.134990467984387
C 4.800043136986745 23.175144740489657 4.776453208226333
C 1.7212318606694887 19.730991192422096 1.69590952097879
C 4.179804426458955 21.682714755863497 1.7679048069063978
C 0.900126027351204 16.592251037925873 0.9170675237924866
C 2.690606397688346 17.518644159172652 1.7860760615255855
C 0.24525856733112025 16.249123101911923 3.616626590212161
C 2.8069687931990526 19.082378427192356 2.325927961312209
C 3.8605868581570872 17.893693032192076 0.20249392953321121
C 1.0086388715731454 16.319707381627033 3.471685979470789
C 2.4796626739680456 20.43794224667198 3.4254396281981343
C 2.8907993653344524 23.903947934033635 0.030593938685714778
C 3.1852806220484724 23.2756671603647 2.7408889164068317
C 3.1354441207912904 18.747061432546225 4.436272510936934
C 3.878463842731796 18.39524525886725 0.12073234949159406
C 2.995908759930193 22.174523966159754 2.666225916673984
C 1.1366629313071497 22.85846230240792 3.402838432978101
C 1.9167530633371572 19.3572498602785 0.5166241129591725
C 2.5917591072799566 18.87267504900092 4.9177128751646695
C 2.9188399708997776 22.082010939054815 0.19028215232921997
C 2.923439760333706 16.724252457736707 2.938678568831433
C 3.5781117321734146 17.390531502250493 4.819223531647669
C 2.1700728224064183 21.597581323526406 0.5540161410948912
C 4.53547195292743 21.373953143024448 1.4804075994003614
C 3.64682836814121 18.221091093835746 2.0608959816142782
C 3.1141233915600517 23.257126446385215 1.3139763823130572
C 3.9886913463602935 17.155867154986936 0.9015545549831921
C 3.7793036243396876 18.7557349755095 3.6322817405062673
C 4.163515487631529 20.253297406029073 2.626859703976879
C 4.7703074901683475 16.275489208141 1.598348967267416
C 1.5078104623548856 19.84849731469769 1.9278149945315728
C 1.0670438828448954 18.907137873439062 0.3282925666365888
C 4.490002430084096 22.368926723212173 2.644874612387627
C 2.938600620881365 23.561966682397994 0.3031593362659407
C 4.568933189039715 21.229868620787265 0.2353555158371054
C 0.2799159052693829 23.150584310962508 4.336899545741238
C 0.05610325451241627 17.505909396079616 0.19101805350505818
C 0.8274567291568845 23.277164427777297 1.1918633950834465
C 1.5202234643787178 19.856365207516067 3.74115559006017
C 1.0701697640403076 19.293643469691663 2.281368710306274
C 3.9548823247464227 17.559018140760642 3.4408466893994207
C 3.1125725558636526 17.957126238354803 1.5802042724382452
C 4.543865995890157 21.732093384080258 4.168280395581229
C 3.6063633372744897 17.213783480753275 2.676687968468807
C 2.342781765401696 16.938913746317578 3.3337949365043738
C 1.0579929060924602 17.40315492074938 1.0120067975590379
C 4.409848779566961 20.75259736958948 3.765871039670403
C 0.19043563430572388 16.46187611458885 1.3756806101323418
C 1.31483679885172 19.925442701554214 3.0478719048561813
C 0.4299557325645596 20.267553178618442 0.9535524236482616
C 2.350644846102894 16.900142176993754 2.5180810867897114
C 2.139092284045667 23.51335713571188 2.5026893689194427
C 2.493080642727341 21.305539817887333 1.7762551348521622
C 1.3806474676201985 16.49326678969102 4.600377520899922
C 1.410119182912296 17.8116380166627 1.2799274196763943
C 2.305535280647466 21.459493018268972 1.1232053922425012
C 1.1512523297333277 22.641158820758374 2.722753574481266
C 0.10514423517998306 23.13443781583102 0.6894387754717846
C 4.961847951748848 22.253899260227733 4.894309981424882
C 2.3576850461805687 23.48740068049563 3.186384906525841
C 4.651759422478247 21.033513089142193 3.084231536551136
C 2.1868594618348944 20.77972127502773 2.3830006447812355
C 2.778118943182179 19.475028486892008 0.9167584954912167
C 2.0915807927204555 23.61810018034975 3.192654844649158
C 3.5032579877928534 21.75460446058534 4.653576298223912
C 1.8001488429284103 16.815895215412603 4.4621301458959595
C 0.36323780338116285 17.814473086869768 0.7444295365865936
C 1.6572903530142835 20.266899517394947 1.8035871244614898
C 0.9933563204417506 18.695504199471106 2.442913640664448
C 4.7317772586033175 17.945647653695087 2.972687730956568
C 4.482266464772298 23.731196040977597 4.980955777038432
C 3.0709962584757684 21.622545631855612 2.527216699355577
C 2.885664165289379 18.444219160391576 2.8960515912413056
C 1.6619865503724192 19.28392882849513 2.341054860691219
C 4.37303233014952 19.253281700387525 0.9670109967820423
C 3.3742145148743106 18.056751047298476 1.0400357909093567
C 3.2047334897550606 18.01840747795503 0.6758371953566306
C 4.73095951432897 16.92819515499062 3.84722589145084
C 3.836451077961981 23.991219112886654 1.1199916451266225
C 0.22528393303911462 20.78300951019357 2.0948621330980535
C 0.24936476203626276 18.186940182365966 3.728871861344879
C 0.6196975949271561 18.41490713651701 1.851536651438681
C 4.967280341451508 21.529861153066395 4.471223960130962
C 0.8311205167246155 24.578556369492695 0.25156153351809984
C 4.268229733927212 39.0009522805766 0.7168780365009809
C 0.20635726710403696 27.64908925305013 2.6464356493928145
C 0.5422279268460761 30.01518581317984 0.9200874452405022
C 4.219674371089808 24.712369880144127 2.722856730858742
C 4.879976236140685 31.548123303419345 3.8606242680085954
C 2.320281335917395 24.279216626745594 2.35850139560974
C 1.5600070353170798 24.53012045179677 1.809853730360049
