162
#
C 0.38977184102659035 18.096259354089522 4.317040270258217
C 3.6560916602417093 22.933936725371062 4.4162356142795725
C 0.004062075857857117 21.83189708902381 1.559679823583706
C 3.819001600764156 19.969770072461102 2.342965233269076
C 1.1372787150857304 24.141004441547764 4.221473519547515
C 4.157126808847927 20.62838675874534 1.0904012302598747
C 3.530926710491386 21.290543516065128 3.707284702166455
C 4.2804027376984335 18.085690308249493 4.394459529497233
C 0.2249854635736196 20.758149278252613 3.8459579697559025
C 1.577067749452286 17.50312442440241 2.5544728745324057
C 4.696568084702578 11.422716977693804 4.014149667867937
C 1.4444922128625282 19.68744569751927 3.6140341930396733
C 3.1086697991135805 34.21556791421065 2.3709318650267903
C 2.796027495227287 22.611313436947402 1.1608002917827598
C 1.8351020652790446 15.244815393842075 3.5959101761173398
C 4.361442209555456 22.507469860186006 0.7326765246704049
C 3.977984589190533 19.02184423821476 1.675724126930589
C 3.4370324948957065 23.04811475670638 3.43136133441607
C 4.714311662910853 16.723192102124663 2.1803247625022486
C 0.11596473431160595 34.86858120728825 1.468779102682433
C 3.7394654609881015 21.60084081641779 1.040986089638894
C 2.9040824683608677 14.623934958733019 3.6494915054657238
C 2.798173925041917 18.673218267264627 1.4504832367500915
C 3.530236131802325 18.563222675224868 0.6248467952142054
C 4.5712748085598935 24.009923143904704 4.422900592887638
C 3.4601606731584242 17.713834123215456 1.4029024220899318
C 1.6474395053971658 18.52885933951915 1.822087857908903
C 3.499286192880658 18.770622651205986 2.5256009656265452
C 1.8285831741238003 14.193665338897324 2.6764953827904985
C 2.589539422411068 17.535654416698357 4.603274089994964
C 0.1371186507052984 14.974802498004525 0.9476334922691951
C 2.3289585210118036 19.896199401301754 3.113805911054816
C 4.084490186855578 15.590269904861573 0.9487442696864893
C 3.592691693669765 17.18684987522882 3.7977885657631463
C 3.2241256830382983 16.305244830695692 3.1963470296765384
C 1.989501630713724 16.924844673513604 4.021363996951778
C 2.6855094797745562 17.266377966915023 3.283081633918459
C 0.27736970514557036 20.690953763257983 1.6565888694592192
C 0.4538988219712101 18.62025855184749 0.4688215242374641
C 3.424671091395307 21.496307916083676 2.527770090256384
C 4.603582260707807 17.84755751975374 0.3728926726932419
C 4.166201497675482 19.08523483290238 3.7538632077363108
C 4.6304294692242935 17.699310830499577 3.176684763131336
C 1.5282162752907889 19.132429276802387 2.6633757507898213
C 0.4898102293057123 5.496560166741744 4.281316125435454
C 1.6289283455338408 18.88451671246734 0.4766391981236258
C 3.536972500590247 17.007824536282914 0.06454648390024184
C 0.6744913834694275 17.637259333754315 2.1782094990297063
C 4.212899034124809 20.416858961531133 3.347591325611316
C 0.5802816295062994 18.08955425711751 3.2143465522157575
C 4.804743138134149 19.01509395085029 4.532295932898639
C 2.002914533759907 20.411659838790293 0.023880468401139665
C 4.740364036915073 16.846585088565906 3.7358966772719957
C 4.4392783590256295 19.026325821136194 0.6229954823970556
C 4.959258286871841 16.71139982804044 0.5307098084477455
C 3.6785210806262834 2.6181460053591463 4.380323205628605
C 1.3883934901841748 18.033227721953946 4.462028263372604
C 1.0649111087505547 20.28450698789386 4.448916930521407
C 0.35510586432275393 19.33185030180969 3.4801328652872847
C 0.5298001148339365 16.952145932382344 2.960862072432333
C 0.2795296889863226 26.284760681731637 1.194652407710494
C 2.8916594163241203 16.889771786333018 2.312517473231344
C 4.243562760932427 16.627230068982882 1.2260341684821365
C 0.8615305857720854 25.173689327880968 4.972369754802536
C 4.425618172216202 21.134534684802144 2.1748195036535076
C 0.7169577940548859 14.519118323838356 1.7871262670124175
C 1.1336597181910544 21.539799657849784 4.080508149912847
C 2.1987416046256674 17.770726419458413 1.090258229292298
C 3.8921887157279613 22.329391666354514 1.8569741693418376
C 2.6650463046656228 16.160197530523554 0.37206684240382815
C 0.8721813351649335 19.30644045149023 1.1953074553285983
C 2.6829649904508077 35.137295787087716 3.778839266182508
C 2.338374159727699 21.603827361734233 1.0251662696224915
C 2.951810716285931 20.35541187136417 3.93745408039963
C 3.2128417581874817 20.79257429096926 1.6441436447096258
C 4.764620805964662 21.53547024828846 4.268742801301954
C 3.7361973577487597 23.796057330736055 0.28637158757201675
C 1.1742243111132151 15.579642908246724 1.433259954646478
C 2.0503380321899614 14.676004216049026 4.858951878517088
C 1.6929505104133256 16.16991982731902 3.2254894297511805
C 1.2825837780889473 20.245940171080665 1.7852431040096308
C 4.73590772155296 21.50669191111331 0.5447359057704908
C 2.4471076290509703 19.087804489341025 3.979898421666164
C 1.5174540897607012 37.15262429557386 3.7380653209374213
C 2.7587911847122286 23.632636923022005 2.358668197318995
C 1.4590742805636339 21.445525017241266 2.8808515173086886
C 4.304028986093776 16.533557884488527 4.697863454289251
C 2.1454914966534187 21.976233774806033 2.0661730033580836
C 3.5628364005716824 19.875683237439784 1.2767152409517961
C 2.5651433864811803 18.83689263213541 3.0454974536471084
C 3.435397465173051 17.997336816380418 3.2779258059472474
C 4.746639946212535 19.975282654310373 4.301772077089676
C 0.08316161047249501 15.64053156416527 3.87206857296518
C 1.945367814529339 20.5610800194876 3.882624041696068
C 1.1814008664614177 17.79659242642749 1.1879222142936179
C 3.7646954562071633 21.28909615112153 4.866454854154504
C 1.2285798397542882 16.197873187314546 4.883582674103948
C 1.251061419975872 15.273264263340614 2.6879643243348568
C 3.8224975835463617 20.122292782624392 4.9649678333291565
C 2.753491960535463 17.929698433424942 2.4185743563694557
C 4.128608093875647 14.541131930027467 1.354447649170987
C 0.9624025263967972 19.804367101996892 0.30742378576257545
C 3.293019896538892 18.201300171998614 4.457403803433972
C 4.345445778642928 23.403992547241632 1.9646547236153262
C 2.223415052098375 22.329654113045844 4.875223034346276
C 0.21111690984358308 26.75109724976452 0.22101009923489945
C 4.473083129624172 19.119364894912138 2.557868002546191
C 0.5058681598223399 24.05063504485308 2.270258618909236
C 1.9413152530093665 17.122906193112822 0.34761461934700366
C 3.3659388692532417 19.60320965844189 3.380055121127329
C 2.688122361789889 19.63684247035872 0.1502892938702152
C 4.996050679001611 20.27215957459326 0.6527755385383969
C 0.5513895768913539 17.515191807572037 0.09862786273424168
C 4.9479178476406895 18.42601649763545 1.4790393118261416
C 0.6112539031881807 0.6368538420259604 2.84617137779926
C 0.46604874954646974 19.19681398085334 2.20227749343434
C 3.9215714444644436 17.136153086346983 2.5970459608334044
C 2.292746394748173 20.935347990769728 1.8883833024027683
C 0.7750672275152937 16.71655773815461 1.3101836565162905
C 2.1815390530836796 18.127013952175766 3.702743251900976
C 0.9679603847637303 19.14127941131814 4.562519807611888
C 0.08188467018276546 15.895695563330726 1.4147289198871236
C 3.8666981808027545 26.150256611769453 0.5534306902942066
C 0.11335584979204621 15.21359468790712 2.401190531445862
C 2.9139624319005155 22.271858006262104 3.964959077072086
C 0.27054103105707167 21.406879532182835 2.820473207012519
C 2.068383766918749 15.930315276855193 1.7888840609692687
C 3.224034859611993 13.461486941981349 2.4061679182933746
C 4.245012227008105 14.634228882614948 2.913681611124316
C 3.9044332888208237 27.444000526864407 1.0446377572590295
C 4.4970382719205135 16.010595908908353 3.0457462514477576
C 0.6234044089884144 16.197330982348586 2.303724344271894
C 3.129805874013558 20.546364109947813 0.5648677668099344
C 3.1253253411590043 20.606125876153087 2.9214614881671426
C 0.9015570563150961 20.532800788058047 3.040187562502233
C 1.3745826960509326 21.904713264924382 0.618324222097665
C 1.7288561551731116 16.96680646516061 1.577557690218913
C 3.5763836689547404 23.426436452613498 1.3363244153169371
C 2.924492171541517 16.527474914354254 4.20099197505235
C 1.2207786615502956 21.277114795110418 1.8358624491752433
C 4.840894688661477 13.893910718527128 1.883364305491454
C 3.227504157729772 22.19717438909196 0.21235249361431655
C 4.0176309976997215 15.937302548589939 2.11088028134377
C 4.725272527540586 19.76550409245097 1.5994600752338493
C 1.1993500015800278 20.762133033578728 0.6623022968359537
C 3.660053788422493 19.20457780310523 4.612274311395195
C 1.1430876559563061 23.08043864448201 4.294086312927097
C 4.385325222128798 18.129405918262336 2.311475433349747
C 2.6838432883299426 21.118812234300098 4.524442324230783
C 2.4142336839337046 21.515687229800594 3.3530658514721563
C 2.3465300997867584 20.149759510649726 1.0667260499656226
C 3.0099295749691266 16.938492785672743 1.043732670546898
C 4.985698435883629 20.10115219736228 2.568891360387687
C 2.9503859636414225 26.33682966429337 2.2316368329529865
C 0.2716007630976115 22.38816781880433 4.895477197976576
C 4.989868406985205 17.40225155162723 1.3754776649919322
C 2.7371383182331117 7.01066973985554 0.5931310592996005
C 4.10921525972449 38.06088978314185 2.409885660759991
C 0.4375434819282525 20.98818818831609 4.846381890849123
C 4.997733908013111 39.099998430915846 0.9226558770814975
C 2.722488711543494 19.89251450683246 2.0335773419126686
C 1.458030202233378 36.939965955445594 1.5253832369510851
