162
#
C 4.470903100634176 13.761307067088756 4.990248265669862
C 3.875904280451474 12.035930930233336 3.1162998248635256
C 4.717889422459233 3.0583346923210826 3.7515054235040117
C 1.5014123992958728 9.67484311698069 2.4628983897497827
C 3.1255417093754003 11.893936323585397 1.7404391122853387
C 2.463790007713334 14.990292940070743 1.6355574850926207
C 3.391060010250899 10.86217012850086 1.0646505868710232
C 4.476129944705768 13.526609328033055 4.556668124761089
C 4.5377670767504705 23.13261122296477 2.034275515459683
C 2.3303099145580424 17.766264191081525 1.4905429104813432
C 4.117824660873986 21.16645454395978 4.949191573309029
C 2.4640309003905974 19.465904851202833 2.3206085730809662
C 3.8315518125023913 17.468504039982996 2.196988978787146
C 1.6023851777584897 16.32449170782844 1.8255128430359853
C 4.503025817427945 19.80925247282525 3.5442449975747086
C 4.868910525451945 23.082453578319466 3.7986780429105442
C 1.183029113004637 21.810179545036647 0.16243109843312842
C 4.261327439580763 18.864149906335758 1.836997643104508
C 3.944805550883447 22.07428975717979 3.2640521489037884
C 0.014906222194299157 18.998561564652448 4.091260959132109
C 2.660139215334079 16.047192477392702 4.097733134091593
C 0.9008008447027005 21.556027195427717 1.1278192788221237
C 0.5863308717750892 23.573630071075296 0.7777839407343529
C 2.459547992951526 23.20702917622058 1.5936841435974252
C 1.627756535258868 16.172731923585953 1.3854100133290648
C 2.6283540236347043 22.116487802892685 4.198000876505057
C 2.64835447573882 23.655950770980976 1.1518085037026227
C 4.688917637466591 19.66665520417321 2.0170433422426353
C 4.833149342182054 20.392326310058557 2.1496581758261533
C 0.8275541404497921 16.280222089568934 1.7012907288450763
C 3.5090015653333517 23.432579264736138 2.2105205204682283
C 0.8443264424548014 20.021307224586685 3.899633394306994
C 3.138685186834361 16.234187096935038 3.128075423292265
C 0.1290762932347439 21.142160740640993 2.4283938110232333
C 2.0368302561556666 18.62151843332679 2.44144928008045
C 4.490176271042529 17.845161480842407 0.2271874862105222
C 4.231129548589205 17.87117883287253 3.838232927816226
C 3.2987537143929178 19.374225954600785 2.9357750742820437
C 2.4917241688355296 22.940027893668407 4.883878965901841
C 0.8752042695195922 22.18320433062145 3.337887683245965
C 0.2378980780717549 19.309204552264156 3.3874000674916678
C 0.7639175510444979 23.783636387054933 4.559372738428077
C 4.045882036993476 23.579756392149623 4.774083832537898
C 2.711178901946414 23.729964970979832 2.0790192571146915
C 4.5433666459269 22.899895608024238 0.8660020237708926
C 1.1777004121788348 18.49256293753282 1.083183257690583
C 0.5126119342055402 22.989311466500798 3.803909396222109
C 3.2478076801339935 22.072887826671213 3.5849375129514405
C 4.053543708823473 20.518072985325716 3.131383885806653
C 2.9910264248849576 19.276407356697316 4.622518023433212
C 3.933508392331336 18.54568723234697 2.8975364404387682
C 2.090492629300966 16.426991626323165 4.594091639253236
C 1.384049394900158 20.949179075679545 1.9397090709146603
C 3.5813503459791503 22.98990651940454 4.206855593048261
C 4.100941113185282 20.311401857273097 1.6443214961765595
C 3.462013785670181 18.788366111178657 3.852924310524186
C 4.624305850465358 20.83323444908639 3.4503150229176507
C 2.9074481441231015 20.722729634201734 1.8188571749561717
C 4.902132313637834 23.88714443046905 0.6332426555266518
C 3.0984849781330723 18.072578052953833 3.738203892528758
C 0.35631403613913426 19.298106153188385 0.3211843022115063
C 3.206228405848872 18.69801193458025 0.5561795229785182
C 0.2961708373135563 16.32109531741304 1.9481778653361355
C 1.9366714740310687 21.127356651896505 0.006063950632239079
C 3.012337226998966 23.999773904863382 1.5825347481738261
C 1.2708022286668585 17.689070321411055 1.5221596637623507
C 0.12979758001412767 16.727503881379967 4.143489570062248
C 1.968306049119627 16.243114217503226 0.41434886892482314
C 2.934149389959245 22.73602355050298 1.5197572569696383
C 4.266290125683959 18.812606478838216 0.4246257938103887
C 2.6179702816008947 23.328702076539976 4.702416154004341
C 4.36238693237406 16.53357638874037 0.6873247280944395
C 3.796031416628188 16.194932092855446 1.8868363760838247
C 2.0992558538567927 17.189310514239452 2.1149920705102936
C 1.7395865645074715 21.54588066570868 3.1914048209057015
C 1.8398105341658981 22.109682428264957 0.13099233519621334
C 2.800680539217507 20.884211593109786 4.658342908501567
C 4.135931172328625 22.111165163718358 0.28980679993892144
C 3.047640255593495 16.744866383650784 0.4395587111376975
C 1.784616881637563 18.787911401771417 1.3755747477060198
C 3.646421044406008 21.35401403154281 4.303992667868623
C 4.029948014578576 17.614593334883665 2.6388816299526234
C 1.7886771777345989 19.798194632121806 4.622955552448304
C 2.0413271618943063 21.61294627266105 3.7934099739101974
C 2.1107181421133365 21.46279729403715 0.694301368382656
C 4.104718981156595 23.887762950590968 0.8604085332320344
C 0.13288728557398266 19.894445493221376 0.1265192727817771
C 4.418421796923468 21.45254121275643 3.4604876924298305
C 0.2871324155129906 21.227267927304197 0.8839816248331539
C 2.8004003056474507 16.966958847256937 4.363481763272219
C 3.2277839719324444 17.078706815495593 2.5351642365666627
C 0.3790263949562489 17.203157221573385 1.3006859390910497
C 2.8444959113766206 23.73698925493098 1.4146877200571146
C 3.8307858398902765 19.155445825338454 3.9597066256385176
C 3.06058471109502 23.96119673887004 3.199348376074135
C 4.204824052939699 17.301037344397358 0.16354273910589356
C 2.970294946495132 20.752450949816286 2.985283568964463
C 4.894422364986871 17.09548556447387 2.4796606310094997
C 3.4150948012310014 19.926215763908214 2.508692912535331
C 1.0830264811752555 22.49037785596687 3.847846935948829
C 3.9271513609020565 17.114078445869104 4.954591060759229
C 1.2898422288902756 16.13331201298356 0.3143775803952553
C 2.025961895514443 16.33330353195495 0.9257435404563236
C 3.7217823831121666 20.371334809858077 0.8768857507447586
C 2.5620029564414364 19.938234167091647 1.9251779995782137
C 3.46667727179934 20.67295577165084 1.6571605303182169
C 1.7625441424467163 23.36716548980871 3.1929496256698013
C 3.378689499333542 21.533498832675228 2.408369767643202
C 3.1857133226982026 23.28623975438074 1.9852970877253324
C 4.572068447924334 17.93942375094935 4.896245972639617
C 2.285463042263751 21.829141280944935 1.918683991750798
C 1.174146941257188 18.512113312246875 0.02280971512850616
C 4.5557464560801115 22.595797991468537 2.913406331449963
C 0.1253463275157063 19.489300443354466 4.833523799254829
C 2.64172600351172 20.922040163859503 0.5424748522631756
C 1.0571144874426937 22.728232969041162 4.17299866781104
C 4.068761169864012 23.548841261561176 3.1514314274802024
C 1.9371665781185206 23.33269714929228 2.8344316093486794
C 0.9622442339178777 23.49202220963754 1.731090159730987
C 0.8935615679691578 21.05596930353435 3.4513437735442847
C 1.1332952283158904 16.01098481077258 4.284308288039178
C 1.0353896225673842 17.197800019391316 3.1858734101261876
C 1.9164936951720446 23.559275496576426 1.6937521297460285
C 1.6742241991058537 22.179884595017537 2.2308232793815113
C 4.508761715116342 20.756280881006706 3.0469031399376205
C 0.296410407913249 21.874019463130395 0.6616581142141242
C 3.252795339988055 22.819641317479032 0.39371554504644857
C 2.89739878859642 23.063460684491982 0.7081071484462087
C 1.8798805620534216 23.16255420592726 2.6624118291370453
C 2.1801169097760367 17.266303319546434 3.649245361761535
C 2.684196167626248 17.761338559817176 0.12403743078816809
C 3.0920075914826493 19.44967742505652 1.5570916055641875
C 4.249656881918371 18.346946702448395 2.9540539337983303
C 0.19660804634389129 20.32531482590037 3.9796672404066653
C 3.517793215624226 23.42523633639263 1.9108166472569554
C 2.6595894578567774 21.20506195492695 4.782828665112527
C 0.8456259575636565 22.233760096180568 3.4591243076532896
C 1.7880266671112155 22.851793250731248 0.6426293827094837
C 0.5790253615532237 19.883519895040266 2.9097058491014343
C 2.501271627819013 18.180298212667633 3.65873965585406
C 2.0699865980122514 18.84348780423381 2.9155186276492087
C 0.42293477517890143 19.095775368908313 2.2349201852363842
C 4.206820765435432 19.237679819413216 2.140645107511273
C 4.296765188861643 23.851248231691283 0.6533136920898741
C 2.1090048133451553 22.309101462653786 4.166059565921202
C 1.9657827394409433 23.763740832917712 0.6886137031295086
C 3.0308754448664277 19.31635945039204 0.17677600016624162
C 4.3921700262040915 17.857618633890297 1.3118103781059638
C 4.272031310995717 18.547579185240085 1.5660659927478675
C 4.359920687819143 23.97660144199607 4.955825025987511
C 1.0764142211857282 18.990648822364765 4.148758005227614
C 1.833996478347768 20.070887146991 1.3201985283308044
C 3.4066081195101394 23.426926031178812 4.911535930250218
C 2.2673761994881403 19.687072161083258 4.643222608104766
C 2.294770123396226 26.632192425512727 1.2621907662389564
C 3.36584962607339 37.34647942247973 2.027183773661798
C 4.911078107467149 24.83948509024041 0.7565144457728928
C 4.866928369945327 26.775379133781506 0.6062775312503471
C 3.2306820641644918 33.27873371336423 3.2241811597161356
C 1.5448085813687236 32.04475750393068 2.8308477008187745
C 0.7345662589018004 37.29778189694213 0.9588276693734227
C 0.9547739383469495 35.607101493098526 1.239822946190322
=======
C 4.697894003937716 7.091377928783663 0.33817847045517435
C 0.05341455660410055 0.08910885264233848 4.684405951798332
C 2.021622046399971 6.371445017746344 1.8391613573517733
C 0.681825981837631 14.076250020886322 0.14369373178781897
C 4.646347353639494 2.903998004388619 0.8593120128269061
C 1.1870066687613146 13.12749126317342 1.778022023424532
C 2.3601178265832328 7.595135735482133 4.610177465594784
C 0.048924884505902044 1.7308942544527408 4.516324239828934
C 3.8760331794354395 17.98938856130482 2.138280690202449
C 1.3534241986378142 22.610410049951987 0.19461539472767408
C 0.1534200601965463 21.819460198039586 3.736773005655704
C 2.770512744327367 21.694229961094244 1.045891752333314
C 3.0998876927795753 18.12593934769221 1.3283862990618607
C 4.169850726771847 17.518241249277942 4.839937986796029
C 0.49922242658152705 16.48012140343196 0.21044979405663855
C 3.555714217739991 18.529357389457545 1.4015819524841155
C 0.9197755832932264 18.65966358081687 3.873722134485627
C 0.19204837291261934 23.533051508693248 4.349577467518703
C 1.1450229105785863 21.032313521626527 1.3683627491168022
C 3.990056351652676 19.815755074648123 3.0913213593368067
C 0.8879558963996625 19.68532339950082 0.5449839301515574
C 3.2494034972199493 16.470543133471626 2.123616353182986
C 0.46028443754131565 17.9664719588579 2.161922280167807
C 4.431631251352605 18.052794419898824 0.17330243478892615
C 3.491906272181863 21.4301876982155 0.9301509409445663
C 1.3605919460212124 20.983047785669847 0.37937250902438824
C 4.197422936487478 18.853267451219377 1.5510309873879953
C 3.706201203576093 19.747613076313126 2.038606450741824
C 4.0746705853291125 17.638071215115946 3.009839867032138
C 4.175777716949689 23.682673424688296 1.2855865957636174
C 4.665490787504875 20.498646718847386 3.7934909527961502
C 2.748745815539366 23.004670070882696 2.037212832171267
C 0.6979503975247514 23.830943530552695 4.2607559169570495
C 4.541722285359555 19.043183211761303 4.4569383398799065
C 1.3907405144228324 18.15682131101933 0.5016487739766851
C 1.789049417157107 16.42186113621252 3.8386799882556515
C 3.9591432185558046 18.757148367576626 0.23353810651067064
C 4.199836216583712 19.716467439450994 3.3504796266050403
C 0.5415435100295773 23.85940091430465 3.5619735070049696
C 1.691052703002458 20.94509125561347 3.8646687854731008
C 2.3064557343237837 19.87145200991253 0.3558529334767563
C 4.057703343601082 21.15897585307073 2.00156082956498
C 3.4826788457802227 22.445002293239767 4.369223035166915
C 3.37231893647484 19.381427564612224 0.03022943904059383
C 3.475384602759361 20.05487430503777 2.727585421808536
C 4.100672514392457 17.255177984278056 1.5387926180939822
C 1.4728878960034604 17.37986753243934 0.08442168700931063
C 2.015320173216068 18.011614778309422 4.872602831969525
C 2.217851353451332 22.347069139796474 1.8969386165899422
C 4.65440256635496 23.003459192413903 3.589654396172137
C 2.156467899574892 20.10988907589682 0.43497157966254585
C 2.0251574641466807 19.402516907645342 3.278010779195521
C 3.6609012082943693 20.39769117453978 1.3863713441282681
C 2.617445822878916 18.225061090771042 0.8385634409906051
C 3.5035021764525327 18.615193725262536 0.19619214135349727
C 2.845459117892981 22.87569510388615 0.42542417559249424
C 1.8653293889242533 22.453192115394646 3.161841305286748
C 1.9578307984449599 18.45624888104251 3.7324737790572575
C 1.4684817015695835 17.472045354709458 0.7577734866741043
C 4.606559648378257 21.240437237269642 1.753547491830576
C 2.9175001455212612 22.138730650506897 0.2596024654182405
C 4.65238989509632 22.231302421927662 1.2269705293226318
C 1.9688796581554824 20.334966443845598 4.661874521777224
C 4.170946892518001 23.631970025458102 2.9869976060807173
C 0.023350641289958673 17.54212956937387 0.9467043331716696
C 3.826922689432232 17.670308109007536 2.9729597528860223
C 4.131104488060648 23.238481662111553 0.4448602401925711
C 0.8678703108400454 17.408570809106312 1.7644736977478686
C 2.9740604269700555 23.15136934022361 1.4783106535866475
C 4.067032445346984 23.78599484053884 2.2352794325769354
C 4.678312815902192 20.327819276435942 0.14562398714082214
C 1.3538124613932974 23.597636086047004 0.47479395855318796
C 0.2475809201485385 23.540399859185136 1.4107447372873567
C 4.899513294836045 22.436099129972668 1.9299342838383264
C 1.5508478156139138 19.740111144486157 2.3887681113744446
C 4.6914671936756465 19.207801161653293 1.4291366538365013
C 4.654004315972021 19.090951596135323 2.8598966649773576
C 4.209912362034688 17.446615548710483 2.02239498733703
C 4.140376233413495 16.824862508110517 4.970375478448574
C 0.09956097342221026 22.251651985008692 0.019735345045222563
C 2.2404853776737577 21.62842112534004 0.8284752054560129
C 1.4506062454629913 19.292992046003043 1.91711421113815
C 4.077365184898866 20.159463377298053 4.79593663656826
C 3.2253011311617206 19.880099648256987 4.038710546580159
C 0.08095074960590254 19.19636363408712 4.626989818199899
C 2.107754561300853 19.91923201280757 1.1570091239528217
C 3.4790627413321866 17.214071270188693 3.5518085709216813
C 4.727145874819029 20.744824577214317 4.4530232243420045
C 0.6665099468373059 19.908817747457896 3.3824699674238365
C 0.43259042786258195 16.355074743492846 1.9952920406163859
C 2.5143985612129907 17.317651229622545 2.2907603603474325
C 3.0433799169890934 22.845408067269815 2.96279996209883
C 0.949054027153704 23.51254596041173 0.6855509395433579
C 4.739622767710955 21.738797222573627 4.227161837439607
C 0.4337578473243847 20.53408889382964 3.044464599844743
C 4.8330830053086515 16.240862675599722 1.8207039324289365
C 4.0362685346502865 23.354348103909913 4.838724208267956
C 1.8773691089188311 17.267849501153286 2.0428010912066346
C 3.8802899313657435 23.344436516354357 0.48583558062511245
C 1.5001309800060447 20.06531371259755 0.8878836883083352
C 2.1396615940774404 23.571362925988318 0.05098965576579739
C 3.7813504584120627 23.63017647594067 0.2936936009768182
C 4.440055081956759 22.238377050996537 0.7662178521190954
C 4.120347756820773 23.98609100220761 4.9373323331788175
C 2.0759068608739284 21.86333569458773 0.8184924517501291
C 2.73339512671889 17.18935311243208 4.019028469147897
C 4.5817554650329875 21.07559123242092 0.6869256542064328
C 0.30702189969551597 23.425893470626225 2.1621230627229586
C 3.085725512310308 16.97453048723122 2.28620135558944
C 3.537076163297529 20.1347247474459 4.888927901078059
C 3.27541210363123 19.67678209986401 2.2663292599172187
C 2.2359717704152056 17.06574449675375 3.132043835847359
C 2.795806142059844 21.35380117923926 0.24690708807468542
C 1.0306890891532676 20.1515814300623 2.4088110559296876
C 3.7013544222160766 17.117178936294632 1.0340531327617475
C 3.8881123534548316 23.252877812119657 3.34120299917109
C 1.5546832634467416 23.629976512019944 1.0525300247868614
C 0.007335044283068304 17.24958057883706 4.414563463316695
C 2.285900054322059 21.99815651849718 1.6695035086205767
C 1.4729690619997993 22.985003117628377 1.6380757149712473
C 1.5160462453871353 18.304170480250022 4.339120188826445
C 3.9483223883556704 20.617307779521795 4.464123692205494
C 0.12562809391963803 22.248006385891717 3.9027533690772205
C 2.6197215292871077 19.19034373923358 0.2243714905492089
C 2.4757026324662683 21.382890205119015 3.59967033117146
C 1.8179911772480035 22.954773410749723 2.8746966229444
C 4.897279656464533 17.696616041520354 3.5102351342442963
C 2.5725044860732247 19.837117865214474 3.0323014294306736
C 1.5240875605715842 21.542172445425496 1.5806720476929677
C 2.6841371110546035 21.749766778429795 2.9657555394855892
C 4.839387509038379 17.5215179378627 4.809190893977994
C 3.482649408598144 20.967232533572687 4.9796625051674805
C 3.171931252386859 22.142001353797188 4.426272524777299
C 2.930717406110193 20.74181246087518 1.158284759520765
C 4.8603172162400545 17.85679978710192 1.5822685823215092
C 4.755778265125249 19.869174538208426 0.9673356584162751
C 1.68764359930196 21.836529829311615 2.4814315408432197
C 4.779789857015721 18.795971021314845 1.9509479534417968
C 1.7489223199995907 21.6226488972029 0.7179516500497946
C 2.358582381074327 18.92923410153269 4.936253714936232
C 1.9594297013844524 16.939114813369184 4.431175041348173
C 0.8588981838861198 22.319463125017016 2.4845660959025113
C 2.9373966032072025 18.420335336128662 3.2800709231591405
C 2.298789820339083 19.616265316197477 4.132638590229892
C 4.493430875711985 16.039631681413454 1.1858443115001345
C 4.178586848978364 18.703900567524236 1.6526796714484577
C 0.4893289057907446 22.637582521890504 3.1062162783999696
C 3.0642920572086756 18.174582011242332 2.1800633099810893
C 2.750599723675344 21.899186381047954 1.8634424385368131
C 3.172479311262416 16.790792991492495 4.19765676200834
C 0.9957176709722482 17.81176437284581 4.586831433394223
C 3.1644404217230404 20.903036929253876 3.9561332259730007
C 4.263367502454514 20.259407686184026 2.940358808193884
C 1.2940471508161966 16.313984652235494 2.411970915889489
C 3.2518366750475183 37.59008067806921 0.32047302897254604
C 4.291631379610319 33.84825539092678 2.707871743696572
C 3.5044898254930175 33.36354622171443 0.2623116243157503
C 2.8908640743350524 32.344944602309134 0.8287177152616271
C 4.181593892038656 33.5575930476331 4.466633040747493
C 3.5852731796335897 28.8200553387114 1.8598354970450766
C 4.572097453655218 36.330837873973934 0.5410152713531924
C 3.778556533704136 28.259572559031078 0.26264425970088157
